                                   MODFLOW 6
                U.S. GEOLOGICAL SURVEY MODULAR HYDROLOGIC MODEL
                            VERSION 6.2.0 10/22/2020

   MODFLOW 6 compiled Oct 22 2020 09:26:42 with IFORT compiler (ver. 19.10.2)

This software has been approved for release by the U.S. Geological 
Survey (USGS). Although the software has been subjected to rigorous 
review, the USGS reserves the right to update the software as needed 
pursuant to further analysis and review. No warranty, expressed or 
implied, is made by the USGS or the U.S. Government as to the 
functionality of the software and related material nor shall the 
fact of release constitute any such warranty. Furthermore, the 
software is released on condition that neither the USGS nor the U.S. 
Government shall be held liable for any damages resulting from its 
authorized or unauthorized use. Also refer to the USGS Water 
Resources Software User Rights Notice for complete use, copyright, 
and distribution information.


System command used to initiate simulation:
C:\WRDAPP\mf6.2.0\bin\mf6

MODFLOW was compiled using uniform precision.

Real Variables
  KIND: 8
  TINY (smallest non-zero value):    2.225074-308
  HUGE (largest value):    1.797693+308
  PRECISION: 15
  BIT SIZE: 64

Integer Variables
  KIND: 4
  HUGE (largest value): 2147483647
  BIT SIZE: 32

Long Integer Variables
  KIND: 8
  HUGE (largest value): 9223372036854775807
  BIT SIZE: 64

Logical Variables
  KIND: 4
  BIT SIZE: 32
 

 OPENED mfsim.nam
 FILE TYPE:NAM   UNIT 1001   STATUS:OLD                 
 FORMAT:FORMATTED              ACCESS:SEQUENTIAL          
 ACTION:READ                

 # File generated by Flopy version 3.3.2 on 08/20/2021 at 09:34:03.

 READING SIMULATION OPTIONS
 END OF SIMULATION OPTIONS

 READING SIMULATION TIMING

 OPENED modelo_Norte.tdis
 FILE TYPE:TDIS   UNIT 1002   STATUS:OLD                 
 FORMAT:FORMATTED              ACCESS:SEQUENTIAL          
 ACTION:READ                


 TDIS -- TEMPORAL DISCRETIZATION PACKAGE,
 VERSION 1 : 11/13/2014 - INPUT READ FROM UNIT 1002
 # File generated by Flopy version 3.3.2 on 08/20/2021 at 09:34:03.
 PROCESSING TDIS OPTIONS
    SIMULATION TIME UNIT IS SECONDS
 END OF TDIS OPTIONS
 PROCESSING TDIS DIMENSIONS
 1460 STRESS PERIOD(S) IN SIMULATION
 END OF TDIS DIMENSIONS
 PROCESSING TDIS PERIODDATA


 STRESS PERIOD     LENGTH       TIME STEPS     MULTIPLIER FOR DELT
 ----------------------------------------------------------------------------
        1         1.000000          1                    1.000
        2         86400.00          1                    1.000
        3         86400.00          1                    1.000
        4         86400.00          1                    1.000
        5         86400.00          1                    1.000
        6         86400.00          1                    1.000
        7         86400.00          1                    1.000
        8         86400.00          1                    1.000
        9         86400.00          1                    1.000
       10         86400.00          1                    1.000
       11         86400.00          1                    1.000
       12         86400.00          1                    1.000
       13         86400.00          1                    1.000
       14         86400.00          1                    1.000
       15         86400.00          1                    1.000
       16         86400.00          1                    1.000
       17         86400.00          1                    1.000
       18         86400.00          1                    1.000
       19         86400.00          1                    1.000
       20         86400.00          1                    1.000
       21         86400.00          1                    1.000
       22         86400.00          1                    1.000
       23         86400.00          1                    1.000
       24         86400.00          1                    1.000
       25         86400.00          1                    1.000
       26         86400.00          1                    1.000
       27         86400.00          1                    1.000
       28         86400.00          1                    1.000
       29         86400.00          1                    1.000
       30         86400.00          1                    1.000
       31         86400.00          1                    1.000
       32         86400.00          1                    1.000
       33         86400.00          1                    1.000
       34         86400.00          1                    1.000
       35         86400.00          1                    1.000
       36         86400.00          1                    1.000
       37         86400.00          1                    1.000
       38         86400.00          1                    1.000
       39         86400.00          1                    1.000
       40         86400.00          1                    1.000
       41         86400.00          1                    1.000
       42         86400.00          1                    1.000
       43         86400.00          1                    1.000
       44         86400.00          1                    1.000
       45         86400.00          1                    1.000
       46         86400.00          1                    1.000
       47         86400.00          1                    1.000
       48         86400.00          1                    1.000
       49         86400.00          1                    1.000
       50         86400.00          1                    1.000
       51         86400.00          1                    1.000
       52         86400.00          1                    1.000
       53         86400.00          1                    1.000
       54         86400.00          1                    1.000
       55         86400.00          1                    1.000
       56         86400.00          1                    1.000
       57         86400.00          1                    1.000
       58         86400.00          1                    1.000
       59         86400.00          1                    1.000
       60         86400.00          1                    1.000
       61         86400.00          1                    1.000
       62         86400.00          1                    1.000
       63         86400.00          1                    1.000
       64         86400.00          1                    1.000
       65         86400.00          1                    1.000
       66         86400.00          1                    1.000
       67         86400.00          1                    1.000
       68         86400.00          1                    1.000
       69         86400.00          1                    1.000
       70         86400.00          1                    1.000
       71         86400.00          1                    1.000
       72         86400.00          1                    1.000
       73         86400.00          1                    1.000
       74         86400.00          1                    1.000
       75         86400.00          1                    1.000
       76         86400.00          1                    1.000
       77         86400.00          1                    1.000
       78         86400.00          1                    1.000
       79         86400.00          1                    1.000
       80         86400.00          1                    1.000
       81         86400.00          1                    1.000
       82         86400.00          1                    1.000
       83         86400.00          1                    1.000
       84         86400.00          1                    1.000
       85         86400.00          1                    1.000
       86         86400.00          1                    1.000
       87         86400.00          1                    1.000
       88         86400.00          1                    1.000
       89         86400.00          1                    1.000
       90         86400.00          1                    1.000
       91         86400.00          1                    1.000
       92         86400.00          1                    1.000
       93         86400.00          1                    1.000
       94         86400.00          1                    1.000
       95         86400.00          1                    1.000
       96         86400.00          1                    1.000
       97         86400.00          1                    1.000
       98         86400.00          1                    1.000
       99         86400.00          1                    1.000
      100         86400.00          1                    1.000
      101         86400.00          1                    1.000
      102         86400.00          1                    1.000
      103         86400.00          1                    1.000
      104         86400.00          1                    1.000
      105         86400.00          1                    1.000
      106         86400.00          1                    1.000
      107         86400.00          1                    1.000
      108         86400.00          1                    1.000
      109         86400.00          1                    1.000
      110         86400.00          1                    1.000
      111         86400.00          1                    1.000
      112         86400.00          1                    1.000
      113         86400.00          1                    1.000
      114         86400.00          1                    1.000
      115         86400.00          1                    1.000
      116         86400.00          1                    1.000
      117         86400.00          1                    1.000
      118         86400.00          1                    1.000
      119         86400.00          1                    1.000
      120         86400.00          1                    1.000
      121         86400.00          1                    1.000
      122         86400.00          1                    1.000
      123         86400.00          1                    1.000
      124         86400.00          1                    1.000
      125         86400.00          1                    1.000
      126         86400.00          1                    1.000
      127         86400.00          1                    1.000
      128         86400.00          1                    1.000
      129         86400.00          1                    1.000
      130         86400.00          1                    1.000
      131         86400.00          1                    1.000
      132         86400.00          1                    1.000
      133         86400.00          1                    1.000
      134         86400.00          1                    1.000
      135         86400.00          1                    1.000
      136         86400.00          1                    1.000
      137         86400.00          1                    1.000
      138         86400.00          1                    1.000
      139         86400.00          1                    1.000
      140         86400.00          1                    1.000
      141         86400.00          1                    1.000
      142         86400.00          1                    1.000
      143         86400.00          1                    1.000
      144         86400.00          1                    1.000
      145         86400.00          1                    1.000
      146         86400.00          1                    1.000
      147         86400.00          1                    1.000
      148         86400.00          1                    1.000
      149         86400.00          1                    1.000
      150         86400.00          1                    1.000
      151         86400.00          1                    1.000
      152         86400.00          1                    1.000
      153         86400.00          1                    1.000
      154         86400.00          1                    1.000
      155         86400.00          1                    1.000
      156         86400.00          1                    1.000
      157         86400.00          1                    1.000
      158         86400.00          1                    1.000
      159         86400.00          1                    1.000
      160         86400.00          1                    1.000
      161         86400.00          1                    1.000
      162         86400.00          1                    1.000
      163         86400.00          1                    1.000
      164         86400.00          1                    1.000
      165         86400.00          1                    1.000
      166         86400.00          1                    1.000
      167         86400.00          1                    1.000
      168         86400.00          1                    1.000
      169         86400.00          1                    1.000
      170         86400.00          1                    1.000
      171         86400.00          1                    1.000
      172         86400.00          1                    1.000
      173         86400.00          1                    1.000
      174         86400.00          1                    1.000
      175         86400.00          1                    1.000
      176         86400.00          1                    1.000
      177         86400.00          1                    1.000
      178         86400.00          1                    1.000
      179         86400.00          1                    1.000
      180         86400.00          1                    1.000
      181         86400.00          1                    1.000
      182         86400.00          1                    1.000
      183         86400.00          1                    1.000
      184         86400.00          1                    1.000
      185         86400.00          1                    1.000
      186         86400.00          1                    1.000
      187         86400.00          1                    1.000
      188         86400.00          1                    1.000
      189         86400.00          1                    1.000
      190         86400.00          1                    1.000
      191         86400.00          1                    1.000
      192         86400.00          1                    1.000
      193         86400.00          1                    1.000
      194         86400.00          1                    1.000
      195         86400.00          1                    1.000
      196         86400.00          1                    1.000
      197         86400.00          1                    1.000
      198         86400.00          1                    1.000
      199         86400.00          1                    1.000
      200         86400.00          1                    1.000
      201         86400.00          1                    1.000
      202         86400.00          1                    1.000
      203         86400.00          1                    1.000
      204         86400.00          1                    1.000
      205         86400.00          1                    1.000
      206         86400.00          1                    1.000
      207         86400.00          1                    1.000
      208         86400.00          1                    1.000
      209         86400.00          1                    1.000
      210         86400.00          1                    1.000
      211         86400.00          1                    1.000
      212         86400.00          1                    1.000
      213         86400.00          1                    1.000
      214         86400.00          1                    1.000
      215         86400.00          1                    1.000
      216         86400.00          1                    1.000
      217         86400.00          1                    1.000
      218         86400.00          1                    1.000
      219         86400.00          1                    1.000
      220         86400.00          1                    1.000
      221         86400.00          1                    1.000
      222         86400.00          1                    1.000
      223         86400.00          1                    1.000
      224         86400.00          1                    1.000
      225         86400.00          1                    1.000
      226         86400.00          1                    1.000
      227         86400.00          1                    1.000
      228         86400.00          1                    1.000
      229         86400.00          1                    1.000
      230         86400.00          1                    1.000
      231         86400.00          1                    1.000
      232         86400.00          1                    1.000
      233         86400.00          1                    1.000
      234         86400.00          1                    1.000
      235         86400.00          1                    1.000
      236         86400.00          1                    1.000
      237         86400.00          1                    1.000
      238         86400.00          1                    1.000
      239         86400.00          1                    1.000
      240         86400.00          1                    1.000
      241         86400.00          1                    1.000
      242         86400.00          1                    1.000
      243         86400.00          1                    1.000
      244         86400.00          1                    1.000
      245         86400.00          1                    1.000
      246         86400.00          1                    1.000
      247         86400.00          1                    1.000
      248         86400.00          1                    1.000
      249         86400.00          1                    1.000
      250         86400.00          1                    1.000
      251         86400.00          1                    1.000
      252         86400.00          1                    1.000
      253         86400.00          1                    1.000
      254         86400.00          1                    1.000
      255         86400.00          1                    1.000
      256         86400.00          1                    1.000
      257         86400.00          1                    1.000
      258         86400.00          1                    1.000
      259         86400.00          1                    1.000
      260         86400.00          1                    1.000
      261         86400.00          1                    1.000
      262         86400.00          1                    1.000
      263         86400.00          1                    1.000
      264         86400.00          1                    1.000
      265         86400.00          1                    1.000
      266         86400.00          1                    1.000
      267         86400.00          1                    1.000
      268         86400.00          1                    1.000
      269         86400.00          1                    1.000
      270         86400.00          1                    1.000
      271         86400.00          1                    1.000
      272         86400.00          1                    1.000
      273         86400.00          1                    1.000
      274         86400.00          1                    1.000
      275         86400.00          1                    1.000
      276         86400.00          1                    1.000
      277         86400.00          1                    1.000
      278         86400.00          1                    1.000
      279         86400.00          1                    1.000
      280         86400.00          1                    1.000
      281         86400.00          1                    1.000
      282         86400.00          1                    1.000
      283         86400.00          1                    1.000
      284         86400.00          1                    1.000
      285         86400.00          1                    1.000
      286         86400.00          1                    1.000
      287         86400.00          1                    1.000
      288         86400.00          1                    1.000
      289         86400.00          1                    1.000
      290         86400.00          1                    1.000
      291         86400.00          1                    1.000
      292         86400.00          1                    1.000
      293         86400.00          1                    1.000
      294         86400.00          1                    1.000
      295         86400.00          1                    1.000
      296         86400.00          1                    1.000
      297         86400.00          1                    1.000
      298         86400.00          1                    1.000
      299         86400.00          1                    1.000
      300         86400.00          1                    1.000
      301         86400.00          1                    1.000
      302         86400.00          1                    1.000
      303         86400.00          1                    1.000
      304         86400.00          1                    1.000
      305         86400.00          1                    1.000
      306         86400.00          1                    1.000
      307         86400.00          1                    1.000
      308         86400.00          1                    1.000
      309         86400.00          1                    1.000
      310         86400.00          1                    1.000
      311         86400.00          1                    1.000
      312         86400.00          1                    1.000
      313         86400.00          1                    1.000
      314         86400.00          1                    1.000
      315         86400.00          1                    1.000
      316         86400.00          1                    1.000
      317         86400.00          1                    1.000
      318         86400.00          1                    1.000
      319         86400.00          1                    1.000
      320         86400.00          1                    1.000
      321         86400.00          1                    1.000
      322         86400.00          1                    1.000
      323         86400.00          1                    1.000
      324         86400.00          1                    1.000
      325         86400.00          1                    1.000
      326         86400.00          1                    1.000
      327         86400.00          1                    1.000
      328         86400.00          1                    1.000
      329         86400.00          1                    1.000
      330         86400.00          1                    1.000
      331         86400.00          1                    1.000
      332         86400.00          1                    1.000
      333         86400.00          1                    1.000
      334         86400.00          1                    1.000
      335         86400.00          1                    1.000
      336         86400.00          1                    1.000
      337         86400.00          1                    1.000
      338         86400.00          1                    1.000
      339         86400.00          1                    1.000
      340         86400.00          1                    1.000
      341         86400.00          1                    1.000
      342         86400.00          1                    1.000
      343         86400.00          1                    1.000
      344         86400.00          1                    1.000
      345         86400.00          1                    1.000
      346         86400.00          1                    1.000
      347         86400.00          1                    1.000
      348         86400.00          1                    1.000
      349         86400.00          1                    1.000
      350         86400.00          1                    1.000
      351         86400.00          1                    1.000
      352         86400.00          1                    1.000
      353         86400.00          1                    1.000
      354         86400.00          1                    1.000
      355         86400.00          1                    1.000
      356         86400.00          1                    1.000
      357         86400.00          1                    1.000
      358         86400.00          1                    1.000
      359         86400.00          1                    1.000
      360         86400.00          1                    1.000
      361         86400.00          1                    1.000
      362         86400.00          1                    1.000
      363         86400.00          1                    1.000
      364         86400.00          1                    1.000
      365         86400.00          1                    1.000
      366         86400.00          1                    1.000
      367         86400.00          1                    1.000
      368         86400.00          1                    1.000
      369         86400.00          1                    1.000
      370         86400.00          1                    1.000
      371         86400.00          1                    1.000
      372         86400.00          1                    1.000
      373         86400.00          1                    1.000
      374         86400.00          1                    1.000
      375         86400.00          1                    1.000
      376         86400.00          1                    1.000
      377         86400.00          1                    1.000
      378         86400.00          1                    1.000
      379         86400.00          1                    1.000
      380         86400.00          1                    1.000
      381         86400.00          1                    1.000
      382         86400.00          1                    1.000
      383         86400.00          1                    1.000
      384         86400.00          1                    1.000
      385         86400.00          1                    1.000
      386         86400.00          1                    1.000
      387         86400.00          1                    1.000
      388         86400.00          1                    1.000
      389         86400.00          1                    1.000
      390         86400.00          1                    1.000
      391         86400.00          1                    1.000
      392         86400.00          1                    1.000
      393         86400.00          1                    1.000
      394         86400.00          1                    1.000
      395         86400.00          1                    1.000
      396         86400.00          1                    1.000
      397         86400.00          1                    1.000
      398         86400.00          1                    1.000
      399         86400.00          1                    1.000
      400         86400.00          1                    1.000
      401         86400.00          1                    1.000
      402         86400.00          1                    1.000
      403         86400.00          1                    1.000
      404         86400.00          1                    1.000
      405         86400.00          1                    1.000
      406         86400.00          1                    1.000
      407         86400.00          1                    1.000
      408         86400.00          1                    1.000
      409         86400.00          1                    1.000
      410         86400.00          1                    1.000
      411         86400.00          1                    1.000
      412         86400.00          1                    1.000
      413         86400.00          1                    1.000
      414         86400.00          1                    1.000
      415         86400.00          1                    1.000
      416         86400.00          1                    1.000
      417         86400.00          1                    1.000
      418         86400.00          1                    1.000
      419         86400.00          1                    1.000
      420         86400.00          1                    1.000
      421         86400.00          1                    1.000
      422         86400.00          1                    1.000
      423         86400.00          1                    1.000
      424         86400.00          1                    1.000
      425         86400.00          1                    1.000
      426         86400.00          1                    1.000
      427         86400.00          1                    1.000
      428         86400.00          1                    1.000
      429         86400.00          1                    1.000
      430         86400.00          1                    1.000
      431         86400.00          1                    1.000
      432         86400.00          1                    1.000
      433         86400.00          1                    1.000
      434         86400.00          1                    1.000
      435         86400.00          1                    1.000
      436         86400.00          1                    1.000
      437         86400.00          1                    1.000
      438         86400.00          1                    1.000
      439         86400.00          1                    1.000
      440         86400.00          1                    1.000
      441         86400.00          1                    1.000
      442         86400.00          1                    1.000
      443         86400.00          1                    1.000
      444         86400.00          1                    1.000
      445         86400.00          1                    1.000
      446         86400.00          1                    1.000
      447         86400.00          1                    1.000
      448         86400.00          1                    1.000
      449         86400.00          1                    1.000
      450         86400.00          1                    1.000
      451         86400.00          1                    1.000
      452         86400.00          1                    1.000
      453         86400.00          1                    1.000
      454         86400.00          1                    1.000
      455         86400.00          1                    1.000
      456         86400.00          1                    1.000
      457         86400.00          1                    1.000
      458         86400.00          1                    1.000
      459         86400.00          1                    1.000
      460         86400.00          1                    1.000
      461         86400.00          1                    1.000
      462         86400.00          1                    1.000
      463         86400.00          1                    1.000
      464         86400.00          1                    1.000
      465         86400.00          1                    1.000
      466         86400.00          1                    1.000
      467         86400.00          1                    1.000
      468         86400.00          1                    1.000
      469         86400.00          1                    1.000
      470         86400.00          1                    1.000
      471         86400.00          1                    1.000
      472         86400.00          1                    1.000
      473         86400.00          1                    1.000
      474         86400.00          1                    1.000
      475         86400.00          1                    1.000
      476         86400.00          1                    1.000
      477         86400.00          1                    1.000
      478         86400.00          1                    1.000
      479         86400.00          1                    1.000
      480         86400.00          1                    1.000
      481         86400.00          1                    1.000
      482         86400.00          1                    1.000
      483         86400.00          1                    1.000
      484         86400.00          1                    1.000
      485         86400.00          1                    1.000
      486         86400.00          1                    1.000
      487         86400.00          1                    1.000
      488         86400.00          1                    1.000
      489         86400.00          1                    1.000
      490         86400.00          1                    1.000
      491         86400.00          1                    1.000
      492         86400.00          1                    1.000
      493         86400.00          1                    1.000
      494         86400.00          1                    1.000
      495         86400.00          1                    1.000
      496         86400.00          1                    1.000
      497         86400.00          1                    1.000
      498         86400.00          1                    1.000
      499         86400.00          1                    1.000
      500         86400.00          1                    1.000
      501         86400.00          1                    1.000
      502         86400.00          1                    1.000
      503         86400.00          1                    1.000
      504         86400.00          1                    1.000
      505         86400.00          1                    1.000
      506         86400.00          1                    1.000
      507         86400.00          1                    1.000
      508         86400.00          1                    1.000
      509         86400.00          1                    1.000
      510         86400.00          1                    1.000
      511         86400.00          1                    1.000
      512         86400.00          1                    1.000
      513         86400.00          1                    1.000
      514         86400.00          1                    1.000
      515         86400.00          1                    1.000
      516         86400.00          1                    1.000
      517         86400.00          1                    1.000
      518         86400.00          1                    1.000
      519         86400.00          1                    1.000
      520         86400.00          1                    1.000
      521         86400.00          1                    1.000
      522         86400.00          1                    1.000
      523         86400.00          1                    1.000
      524         86400.00          1                    1.000
      525         86400.00          1                    1.000
      526         86400.00          1                    1.000
      527         86400.00          1                    1.000
      528         86400.00          1                    1.000
      529         86400.00          1                    1.000
      530         86400.00          1                    1.000
      531         86400.00          1                    1.000
      532         86400.00          1                    1.000
      533         86400.00          1                    1.000
      534         86400.00          1                    1.000
      535         86400.00          1                    1.000
      536         86400.00          1                    1.000
      537         86400.00          1                    1.000
      538         86400.00          1                    1.000
      539         86400.00          1                    1.000
      540         86400.00          1                    1.000
      541         86400.00          1                    1.000
      542         86400.00          1                    1.000
      543         86400.00          1                    1.000
      544         86400.00          1                    1.000
      545         86400.00          1                    1.000
      546         86400.00          1                    1.000
      547         86400.00          1                    1.000
      548         86400.00          1                    1.000
      549         86400.00          1                    1.000
      550         86400.00          1                    1.000
      551         86400.00          1                    1.000
      552         86400.00          1                    1.000
      553         86400.00          1                    1.000
      554         86400.00          1                    1.000
      555         86400.00          1                    1.000
      556         86400.00          1                    1.000
      557         86400.00          1                    1.000
      558         86400.00          1                    1.000
      559         86400.00          1                    1.000
      560         86400.00          1                    1.000
      561         86400.00          1                    1.000
      562         86400.00          1                    1.000
      563         86400.00          1                    1.000
      564         86400.00          1                    1.000
      565         86400.00          1                    1.000
      566         86400.00          1                    1.000
      567         86400.00          1                    1.000
      568         86400.00          1                    1.000
      569         86400.00          1                    1.000
      570         86400.00          1                    1.000
      571         86400.00          1                    1.000
      572         86400.00          1                    1.000
      573         86400.00          1                    1.000
      574         86400.00          1                    1.000
      575         86400.00          1                    1.000
      576         86400.00          1                    1.000
      577         86400.00          1                    1.000
      578         86400.00          1                    1.000
      579         86400.00          1                    1.000
      580         86400.00          1                    1.000
      581         86400.00          1                    1.000
      582         86400.00          1                    1.000
      583         86400.00          1                    1.000
      584         86400.00          1                    1.000
      585         86400.00          1                    1.000
      586         86400.00          1                    1.000
      587         86400.00          1                    1.000
      588         86400.00          1                    1.000
      589         86400.00          1                    1.000
      590         86400.00          1                    1.000
      591         86400.00          1                    1.000
      592         86400.00          1                    1.000
      593         86400.00          1                    1.000
      594         86400.00          1                    1.000
      595         86400.00          1                    1.000
      596         86400.00          1                    1.000
      597         86400.00          1                    1.000
      598         86400.00          1                    1.000
      599         86400.00          1                    1.000
      600         86400.00          1                    1.000
      601         86400.00          1                    1.000
      602         86400.00          1                    1.000
      603         86400.00          1                    1.000
      604         86400.00          1                    1.000
      605         86400.00          1                    1.000
      606         86400.00          1                    1.000
      607         86400.00          1                    1.000
      608         86400.00          1                    1.000
      609         86400.00          1                    1.000
      610         86400.00          1                    1.000
      611         86400.00          1                    1.000
      612         86400.00          1                    1.000
      613         86400.00          1                    1.000
      614         86400.00          1                    1.000
      615         86400.00          1                    1.000
      616         86400.00          1                    1.000
      617         86400.00          1                    1.000
      618         86400.00          1                    1.000
      619         86400.00          1                    1.000
      620         86400.00          1                    1.000
      621         86400.00          1                    1.000
      622         86400.00          1                    1.000
      623         86400.00          1                    1.000
      624         86400.00          1                    1.000
      625         86400.00          1                    1.000
      626         86400.00          1                    1.000
      627         86400.00          1                    1.000
      628         86400.00          1                    1.000
      629         86400.00          1                    1.000
      630         86400.00          1                    1.000
      631         86400.00          1                    1.000
      632         86400.00          1                    1.000
      633         86400.00          1                    1.000
      634         86400.00          1                    1.000
      635         86400.00          1                    1.000
      636         86400.00          1                    1.000
      637         86400.00          1                    1.000
      638         86400.00          1                    1.000
      639         86400.00          1                    1.000
      640         86400.00          1                    1.000
      641         86400.00          1                    1.000
      642         86400.00          1                    1.000
      643         86400.00          1                    1.000
      644         86400.00          1                    1.000
      645         86400.00          1                    1.000
      646         86400.00          1                    1.000
      647         86400.00          1                    1.000
      648         86400.00          1                    1.000
      649         86400.00          1                    1.000
      650         86400.00          1                    1.000
      651         86400.00          1                    1.000
      652         86400.00          1                    1.000
      653         86400.00          1                    1.000
      654         86400.00          1                    1.000
      655         86400.00          1                    1.000
      656         86400.00          1                    1.000
      657         86400.00          1                    1.000
      658         86400.00          1                    1.000
      659         86400.00          1                    1.000
      660         86400.00          1                    1.000
      661         86400.00          1                    1.000
      662         86400.00          1                    1.000
      663         86400.00          1                    1.000
      664         86400.00          1                    1.000
      665         86400.00          1                    1.000
      666         86400.00          1                    1.000
      667         86400.00          1                    1.000
      668         86400.00          1                    1.000
      669         86400.00          1                    1.000
      670         86400.00          1                    1.000
      671         86400.00          1                    1.000
      672         86400.00          1                    1.000
      673         86400.00          1                    1.000
      674         86400.00          1                    1.000
      675         86400.00          1                    1.000
      676         86400.00          1                    1.000
      677         86400.00          1                    1.000
      678         86400.00          1                    1.000
      679         86400.00          1                    1.000
      680         86400.00          1                    1.000
      681         86400.00          1                    1.000
      682         86400.00          1                    1.000
      683         86400.00          1                    1.000
      684         86400.00          1                    1.000
      685         86400.00          1                    1.000
      686         86400.00          1                    1.000
      687         86400.00          1                    1.000
      688         86400.00          1                    1.000
      689         86400.00          1                    1.000
      690         86400.00          1                    1.000
      691         86400.00          1                    1.000
      692         86400.00          1                    1.000
      693         86400.00          1                    1.000
      694         86400.00          1                    1.000
      695         86400.00          1                    1.000
      696         86400.00          1                    1.000
      697         86400.00          1                    1.000
      698         86400.00          1                    1.000
      699         86400.00          1                    1.000
      700         86400.00          1                    1.000
      701         86400.00          1                    1.000
      702         86400.00          1                    1.000
      703         86400.00          1                    1.000
      704         86400.00          1                    1.000
      705         86400.00          1                    1.000
      706         86400.00          1                    1.000
      707         86400.00          1                    1.000
      708         86400.00          1                    1.000
      709         86400.00          1                    1.000
      710         86400.00          1                    1.000
      711         86400.00          1                    1.000
      712         86400.00          1                    1.000
      713         86400.00          1                    1.000
      714         86400.00          1                    1.000
      715         86400.00          1                    1.000
      716         86400.00          1                    1.000
      717         86400.00          1                    1.000
      718         86400.00          1                    1.000
      719         86400.00          1                    1.000
      720         86400.00          1                    1.000
      721         86400.00          1                    1.000
      722         86400.00          1                    1.000
      723         86400.00          1                    1.000
      724         86400.00          1                    1.000
      725         86400.00          1                    1.000
      726         86400.00          1                    1.000
      727         86400.00          1                    1.000
      728         86400.00          1                    1.000
      729         86400.00          1                    1.000
      730         86400.00          1                    1.000
      731         86400.00          1                    1.000
      732         86400.00          1                    1.000
      733         86400.00          1                    1.000
      734         86400.00          1                    1.000
      735         86400.00          1                    1.000
      736         86400.00          1                    1.000
      737         86400.00          1                    1.000
      738         86400.00          1                    1.000
      739         86400.00          1                    1.000
      740         86400.00          1                    1.000
      741         86400.00          1                    1.000
      742         86400.00          1                    1.000
      743         86400.00          1                    1.000
      744         86400.00          1                    1.000
      745         86400.00          1                    1.000
      746         86400.00          1                    1.000
      747         86400.00          1                    1.000
      748         86400.00          1                    1.000
      749         86400.00          1                    1.000
      750         86400.00          1                    1.000
      751         86400.00          1                    1.000
      752         86400.00          1                    1.000
      753         86400.00          1                    1.000
      754         86400.00          1                    1.000
      755         86400.00          1                    1.000
      756         86400.00          1                    1.000
      757         86400.00          1                    1.000
      758         86400.00          1                    1.000
      759         86400.00          1                    1.000
      760         86400.00          1                    1.000
      761         86400.00          1                    1.000
      762         86400.00          1                    1.000
      763         86400.00          1                    1.000
      764         86400.00          1                    1.000
      765         86400.00          1                    1.000
      766         86400.00          1                    1.000
      767         86400.00          1                    1.000
      768         86400.00          1                    1.000
      769         86400.00          1                    1.000
      770         86400.00          1                    1.000
      771         86400.00          1                    1.000
      772         86400.00          1                    1.000
      773         86400.00          1                    1.000
      774         86400.00          1                    1.000
      775         86400.00          1                    1.000
      776         86400.00          1                    1.000
      777         86400.00          1                    1.000
      778         86400.00          1                    1.000
      779         86400.00          1                    1.000
      780         86400.00          1                    1.000
      781         86400.00          1                    1.000
      782         86400.00          1                    1.000
      783         86400.00          1                    1.000
      784         86400.00          1                    1.000
      785         86400.00          1                    1.000
      786         86400.00          1                    1.000
      787         86400.00          1                    1.000
      788         86400.00          1                    1.000
      789         86400.00          1                    1.000
      790         86400.00          1                    1.000
      791         86400.00          1                    1.000
      792         86400.00          1                    1.000
      793         86400.00          1                    1.000
      794         86400.00          1                    1.000
      795         86400.00          1                    1.000
      796         86400.00          1                    1.000
      797         86400.00          1                    1.000
      798         86400.00          1                    1.000
      799         86400.00          1                    1.000
      800         86400.00          1                    1.000
      801         86400.00          1                    1.000
      802         86400.00          1                    1.000
      803         86400.00          1                    1.000
      804         86400.00          1                    1.000
      805         86400.00          1                    1.000
      806         86400.00          1                    1.000
      807         86400.00          1                    1.000
      808         86400.00          1                    1.000
      809         86400.00          1                    1.000
      810         86400.00          1                    1.000
      811         86400.00          1                    1.000
      812         86400.00          1                    1.000
      813         86400.00          1                    1.000
      814         86400.00          1                    1.000
      815         86400.00          1                    1.000
      816         86400.00          1                    1.000
      817         86400.00          1                    1.000
      818         86400.00          1                    1.000
      819         86400.00          1                    1.000
      820         86400.00          1                    1.000
      821         86400.00          1                    1.000
      822         86400.00          1                    1.000
      823         86400.00          1                    1.000
      824         86400.00          1                    1.000
      825         86400.00          1                    1.000
      826         86400.00          1                    1.000
      827         86400.00          1                    1.000
      828         86400.00          1                    1.000
      829         86400.00          1                    1.000
      830         86400.00          1                    1.000
      831         86400.00          1                    1.000
      832         86400.00          1                    1.000
      833         86400.00          1                    1.000
      834         86400.00          1                    1.000
      835         86400.00          1                    1.000
      836         86400.00          1                    1.000
      837         86400.00          1                    1.000
      838         86400.00          1                    1.000
      839         86400.00          1                    1.000
      840         86400.00          1                    1.000
      841         86400.00          1                    1.000
      842         86400.00          1                    1.000
      843         86400.00          1                    1.000
      844         86400.00          1                    1.000
      845         86400.00          1                    1.000
      846         86400.00          1                    1.000
      847         86400.00          1                    1.000
      848         86400.00          1                    1.000
      849         86400.00          1                    1.000
      850         86400.00          1                    1.000
      851         86400.00          1                    1.000
      852         86400.00          1                    1.000
      853         86400.00          1                    1.000
      854         86400.00          1                    1.000
      855         86400.00          1                    1.000
      856         86400.00          1                    1.000
      857         86400.00          1                    1.000
      858         86400.00          1                    1.000
      859         86400.00          1                    1.000
      860         86400.00          1                    1.000
      861         86400.00          1                    1.000
      862         86400.00          1                    1.000
      863         86400.00          1                    1.000
      864         86400.00          1                    1.000
      865         86400.00          1                    1.000
      866         86400.00          1                    1.000
      867         86400.00          1                    1.000
      868         86400.00          1                    1.000
      869         86400.00          1                    1.000
      870         86400.00          1                    1.000
      871         86400.00          1                    1.000
      872         86400.00          1                    1.000
      873         86400.00          1                    1.000
      874         86400.00          1                    1.000
      875         86400.00          1                    1.000
      876         86400.00          1                    1.000
      877         86400.00          1                    1.000
      878         86400.00          1                    1.000
      879         86400.00          1                    1.000
      880         86400.00          1                    1.000
      881         86400.00          1                    1.000
      882         86400.00          1                    1.000
      883         86400.00          1                    1.000
      884         86400.00          1                    1.000
      885         86400.00          1                    1.000
      886         86400.00          1                    1.000
      887         86400.00          1                    1.000
      888         86400.00          1                    1.000
      889         86400.00          1                    1.000
      890         86400.00          1                    1.000
      891         86400.00          1                    1.000
      892         86400.00          1                    1.000
      893         86400.00          1                    1.000
      894         86400.00          1                    1.000
      895         86400.00          1                    1.000
      896         86400.00          1                    1.000
      897         86400.00          1                    1.000
      898         86400.00          1                    1.000
      899         86400.00          1                    1.000
      900         86400.00          1                    1.000
      901         86400.00          1                    1.000
      902         86400.00          1                    1.000
      903         86400.00          1                    1.000
      904         86400.00          1                    1.000
      905         86400.00          1                    1.000
      906         86400.00          1                    1.000
      907         86400.00          1                    1.000
      908         86400.00          1                    1.000
      909         86400.00          1                    1.000
      910         86400.00          1                    1.000
      911         86400.00          1                    1.000
      912         86400.00          1                    1.000
      913         86400.00          1                    1.000
      914         86400.00          1                    1.000
      915         86400.00          1                    1.000
      916         86400.00          1                    1.000
      917         86400.00          1                    1.000
      918         86400.00          1                    1.000
      919         86400.00          1                    1.000
      920         86400.00          1                    1.000
      921         86400.00          1                    1.000
      922         86400.00          1                    1.000
      923         86400.00          1                    1.000
      924         86400.00          1                    1.000
      925         86400.00          1                    1.000
      926         86400.00          1                    1.000
      927         86400.00          1                    1.000
      928         86400.00          1                    1.000
      929         86400.00          1                    1.000
      930         86400.00          1                    1.000
      931         86400.00          1                    1.000
      932         86400.00          1                    1.000
      933         86400.00          1                    1.000
      934         86400.00          1                    1.000
      935         86400.00          1                    1.000
      936         86400.00          1                    1.000
      937         86400.00          1                    1.000
      938         86400.00          1                    1.000
      939         86400.00          1                    1.000
      940         86400.00          1                    1.000
      941         86400.00          1                    1.000
      942         86400.00          1                    1.000
      943         86400.00          1                    1.000
      944         86400.00          1                    1.000
      945         86400.00          1                    1.000
      946         86400.00          1                    1.000
      947         86400.00          1                    1.000
      948         86400.00          1                    1.000
      949         86400.00          1                    1.000
      950         86400.00          1                    1.000
      951         86400.00          1                    1.000
      952         86400.00          1                    1.000
      953         86400.00          1                    1.000
      954         86400.00          1                    1.000
      955         86400.00          1                    1.000
      956         86400.00          1                    1.000
      957         86400.00          1                    1.000
      958         86400.00          1                    1.000
      959         86400.00          1                    1.000
      960         86400.00          1                    1.000
      961         86400.00          1                    1.000
      962         86400.00          1                    1.000
      963         86400.00          1                    1.000
      964         86400.00          1                    1.000
      965         86400.00          1                    1.000
      966         86400.00          1                    1.000
      967         86400.00          1                    1.000
      968         86400.00          1                    1.000
      969         86400.00          1                    1.000
      970         86400.00          1                    1.000
      971         86400.00          1                    1.000
      972         86400.00          1                    1.000
      973         86400.00          1                    1.000
      974         86400.00          1                    1.000
      975         86400.00          1                    1.000
      976         86400.00          1                    1.000
      977         86400.00          1                    1.000
      978         86400.00          1                    1.000
      979         86400.00          1                    1.000
      980         86400.00          1                    1.000
      981         86400.00          1                    1.000
      982         86400.00          1                    1.000
      983         86400.00          1                    1.000
      984         86400.00          1                    1.000
      985         86400.00          1                    1.000
      986         86400.00          1                    1.000
      987         86400.00          1                    1.000
      988         86400.00          1                    1.000
      989         86400.00          1                    1.000
      990         86400.00          1                    1.000
      991         86400.00          1                    1.000
      992         86400.00          1                    1.000
      993         86400.00          1                    1.000
      994         86400.00          1                    1.000
      995         86400.00          1                    1.000
      996         86400.00          1                    1.000
      997         86400.00          1                    1.000
      998         86400.00          1                    1.000
      999         86400.00          1                    1.000
     1000         86400.00          1                    1.000
     1001         86400.00          1                    1.000
     1002         86400.00          1                    1.000
     1003         86400.00          1                    1.000
     1004         86400.00          1                    1.000
     1005         86400.00          1                    1.000
     1006         86400.00          1                    1.000
     1007         86400.00          1                    1.000
     1008         86400.00          1                    1.000
     1009         86400.00          1                    1.000
     1010         86400.00          1                    1.000
     1011         86400.00          1                    1.000
     1012         86400.00          1                    1.000
     1013         86400.00          1                    1.000
     1014         86400.00          1                    1.000
     1015         86400.00          1                    1.000
     1016         86400.00          1                    1.000
     1017         86400.00          1                    1.000
     1018         86400.00          1                    1.000
     1019         86400.00          1                    1.000
     1020         86400.00          1                    1.000
     1021         86400.00          1                    1.000
     1022         86400.00          1                    1.000
     1023         86400.00          1                    1.000
     1024         86400.00          1                    1.000
     1025         86400.00          1                    1.000
     1026         86400.00          1                    1.000
     1027         86400.00          1                    1.000
     1028         86400.00          1                    1.000
     1029         86400.00          1                    1.000
     1030         86400.00          1                    1.000
     1031         86400.00          1                    1.000
     1032         86400.00          1                    1.000
     1033         86400.00          1                    1.000
     1034         86400.00          1                    1.000
     1035         86400.00          1                    1.000
     1036         86400.00          1                    1.000
     1037         86400.00          1                    1.000
     1038         86400.00          1                    1.000
     1039         86400.00          1                    1.000
     1040         86400.00          1                    1.000
     1041         86400.00          1                    1.000
     1042         86400.00          1                    1.000
     1043         86400.00          1                    1.000
     1044         86400.00          1                    1.000
     1045         86400.00          1                    1.000
     1046         86400.00          1                    1.000
     1047         86400.00          1                    1.000
     1048         86400.00          1                    1.000
     1049         86400.00          1                    1.000
     1050         86400.00          1                    1.000
     1051         86400.00          1                    1.000
     1052         86400.00          1                    1.000
     1053         86400.00          1                    1.000
     1054         86400.00          1                    1.000
     1055         86400.00          1                    1.000
     1056         86400.00          1                    1.000
     1057         86400.00          1                    1.000
     1058         86400.00          1                    1.000
     1059         86400.00          1                    1.000
     1060         86400.00          1                    1.000
     1061         86400.00          1                    1.000
     1062         86400.00          1                    1.000
     1063         86400.00          1                    1.000
     1064         86400.00          1                    1.000
     1065         86400.00          1                    1.000
     1066         86400.00          1                    1.000
     1067         86400.00          1                    1.000
     1068         86400.00          1                    1.000
     1069         86400.00          1                    1.000
     1070         86400.00          1                    1.000
     1071         86400.00          1                    1.000
     1072         86400.00          1                    1.000
     1073         86400.00          1                    1.000
     1074         86400.00          1                    1.000
     1075         86400.00          1                    1.000
     1076         86400.00          1                    1.000
     1077         86400.00          1                    1.000
     1078         86400.00          1                    1.000
     1079         86400.00          1                    1.000
     1080         86400.00          1                    1.000
     1081         86400.00          1                    1.000
     1082         86400.00          1                    1.000
     1083         86400.00          1                    1.000
     1084         86400.00          1                    1.000
     1085         86400.00          1                    1.000
     1086         86400.00          1                    1.000
     1087         86400.00          1                    1.000
     1088         86400.00          1                    1.000
     1089         86400.00          1                    1.000
     1090         86400.00          1                    1.000
     1091         86400.00          1                    1.000
     1092         86400.00          1                    1.000
     1093         86400.00          1                    1.000
     1094         86400.00          1                    1.000
     1095         86400.00          1                    1.000
     1096         86400.00          1                    1.000
     1097         86400.00          1                    1.000
     1098         86400.00          1                    1.000
     1099         86400.00          1                    1.000
     1100         86400.00          1                    1.000
     1101         86400.00          1                    1.000
     1102         86400.00          1                    1.000
     1103         86400.00          1                    1.000
     1104         86400.00          1                    1.000
     1105         86400.00          1                    1.000
     1106         86400.00          1                    1.000
     1107         86400.00          1                    1.000
     1108         86400.00          1                    1.000
     1109         86400.00          1                    1.000
     1110         86400.00          1                    1.000
     1111         86400.00          1                    1.000
     1112         86400.00          1                    1.000
     1113         86400.00          1                    1.000
     1114         86400.00          1                    1.000
     1115         86400.00          1                    1.000
     1116         86400.00          1                    1.000
     1117         86400.00          1                    1.000
     1118         86400.00          1                    1.000
     1119         86400.00          1                    1.000
     1120         86400.00          1                    1.000
     1121         86400.00          1                    1.000
     1122         86400.00          1                    1.000
     1123         86400.00          1                    1.000
     1124         86400.00          1                    1.000
     1125         86400.00          1                    1.000
     1126         86400.00          1                    1.000
     1127         86400.00          1                    1.000
     1128         86400.00          1                    1.000
     1129         86400.00          1                    1.000
     1130         86400.00          1                    1.000
     1131         86400.00          1                    1.000
     1132         86400.00          1                    1.000
     1133         86400.00          1                    1.000
     1134         86400.00          1                    1.000
     1135         86400.00          1                    1.000
     1136         86400.00          1                    1.000
     1137         86400.00          1                    1.000
     1138         86400.00          1                    1.000
     1139         86400.00          1                    1.000
     1140         86400.00          1                    1.000
     1141         86400.00          1                    1.000
     1142         86400.00          1                    1.000
     1143         86400.00          1                    1.000
     1144         86400.00          1                    1.000
     1145         86400.00          1                    1.000
     1146         86400.00          1                    1.000
     1147         86400.00          1                    1.000
     1148         86400.00          1                    1.000
     1149         86400.00          1                    1.000
     1150         86400.00          1                    1.000
     1151         86400.00          1                    1.000
     1152         86400.00          1                    1.000
     1153         86400.00          1                    1.000
     1154         86400.00          1                    1.000
     1155         86400.00          1                    1.000
     1156         86400.00          1                    1.000
     1157         86400.00          1                    1.000
     1158         86400.00          1                    1.000
     1159         86400.00          1                    1.000
     1160         86400.00          1                    1.000
     1161         86400.00          1                    1.000
     1162         86400.00          1                    1.000
     1163         86400.00          1                    1.000
     1164         86400.00          1                    1.000
     1165         86400.00          1                    1.000
     1166         86400.00          1                    1.000
     1167         86400.00          1                    1.000
     1168         86400.00          1                    1.000
     1169         86400.00          1                    1.000
     1170         86400.00          1                    1.000
     1171         86400.00          1                    1.000
     1172         86400.00          1                    1.000
     1173         86400.00          1                    1.000
     1174         86400.00          1                    1.000
     1175         86400.00          1                    1.000
     1176         86400.00          1                    1.000
     1177         86400.00          1                    1.000
     1178         86400.00          1                    1.000
     1179         86400.00          1                    1.000
     1180         86400.00          1                    1.000
     1181         86400.00          1                    1.000
     1182         86400.00          1                    1.000
     1183         86400.00          1                    1.000
     1184         86400.00          1                    1.000
     1185         86400.00          1                    1.000
     1186         86400.00          1                    1.000
     1187         86400.00          1                    1.000
     1188         86400.00          1                    1.000
     1189         86400.00          1                    1.000
     1190         86400.00          1                    1.000
     1191         86400.00          1                    1.000
     1192         86400.00          1                    1.000
     1193         86400.00          1                    1.000
     1194         86400.00          1                    1.000
     1195         86400.00          1                    1.000
     1196         86400.00          1                    1.000
     1197         86400.00          1                    1.000
     1198         86400.00          1                    1.000
     1199         86400.00          1                    1.000
     1200         86400.00          1                    1.000
     1201         86400.00          1                    1.000
     1202         86400.00          1                    1.000
     1203         86400.00          1                    1.000
     1204         86400.00          1                    1.000
     1205         86400.00          1                    1.000
     1206         86400.00          1                    1.000
     1207         86400.00          1                    1.000
     1208         86400.00          1                    1.000
     1209         86400.00          1                    1.000
     1210         86400.00          1                    1.000
     1211         86400.00          1                    1.000
     1212         86400.00          1                    1.000
     1213         86400.00          1                    1.000
     1214         86400.00          1                    1.000
     1215         86400.00          1                    1.000
     1216         86400.00          1                    1.000
     1217         86400.00          1                    1.000
     1218         86400.00          1                    1.000
     1219         86400.00          1                    1.000
     1220         86400.00          1                    1.000
     1221         86400.00          1                    1.000
     1222         86400.00          1                    1.000
     1223         86400.00          1                    1.000
     1224         86400.00          1                    1.000
     1225         86400.00          1                    1.000
     1226         86400.00          1                    1.000
     1227         86400.00          1                    1.000
     1228         86400.00          1                    1.000
     1229         86400.00          1                    1.000
     1230         86400.00          1                    1.000
[...]
1
                            STRESS PERIOD NO. 1405, LENGTH =   86400.00    
                            -----------------------------------------------

                              NUMBER OF TIME STEPS =     1

                               MULTIPLIER FOR DELT =     1.000

                            INITIAL TIME STEP SIZE =   86400.00    
1
                            STRESS PERIOD NO. 1406, LENGTH =   86400.00    
                            -----------------------------------------------

                              NUMBER OF TIME STEPS =     1

                               MULTIPLIER FOR DELT =     1.000

                            INITIAL TIME STEP SIZE =   86400.00    
1
                            STRESS PERIOD NO. 1407, LENGTH =   86400.00    
                            -----------------------------------------------

                              NUMBER OF TIME STEPS =     1

                               MULTIPLIER FOR DELT =     1.000

                            INITIAL TIME STEP SIZE =   86400.00    
1
                            STRESS PERIOD NO. 1408, LENGTH =   86400.00    
                            -----------------------------------------------

                              NUMBER OF TIME STEPS =     1

                               MULTIPLIER FOR DELT =     1.000

                            INITIAL TIME STEP SIZE =   86400.00    
1
                            STRESS PERIOD NO. 1409, LENGTH =   86400.00    
                            -----------------------------------------------

                              NUMBER OF TIME STEPS =     1

                               MULTIPLIER FOR DELT =     1.000

                            INITIAL TIME STEP SIZE =   86400.00    
1
                            STRESS PERIOD NO. 1410, LENGTH =   86400.00    
                            -----------------------------------------------

                              NUMBER OF TIME STEPS =     1

                               MULTIPLIER FOR DELT =     1.000

                            INITIAL TIME STEP SIZE =   86400.00    
1
                            STRESS PERIOD NO. 1411, LENGTH =   86400.00    
                            -----------------------------------------------

                              NUMBER OF TIME STEPS =     1

                               MULTIPLIER FOR DELT =     1.000

                            INITIAL TIME STEP SIZE =   86400.00    
1
                            STRESS PERIOD NO. 1412, LENGTH =   86400.00    
                            -----------------------------------------------

                              NUMBER OF TIME STEPS =     1

                               MULTIPLIER FOR DELT =     1.000

                            INITIAL TIME STEP SIZE =   86400.00    
1
                            STRESS PERIOD NO. 1413, LENGTH =   86400.00    
                            -----------------------------------------------

                              NUMBER OF TIME STEPS =     1

                               MULTIPLIER FOR DELT =     1.000

                            INITIAL TIME STEP SIZE =   86400.00    
1
                            STRESS PERIOD NO. 1414, LENGTH =   86400.00    
                            -----------------------------------------------

                              NUMBER OF TIME STEPS =     1

                               MULTIPLIER FOR DELT =     1.000

                            INITIAL TIME STEP SIZE =   86400.00    
1
                            STRESS PERIOD NO. 1415, LENGTH =   86400.00    
                            -----------------------------------------------

                              NUMBER OF TIME STEPS =     1

                               MULTIPLIER FOR DELT =     1.000

                            INITIAL TIME STEP SIZE =   86400.00    
1
                            STRESS PERIOD NO. 1416, LENGTH =   86400.00    
                            -----------------------------------------------

                              NUMBER OF TIME STEPS =     1

                               MULTIPLIER FOR DELT =     1.000

                            INITIAL TIME STEP SIZE =   86400.00    
1
                            STRESS PERIOD NO. 1417, LENGTH =   86400.00    
                            -----------------------------------------------

                              NUMBER OF TIME STEPS =     1

                               MULTIPLIER FOR DELT =     1.000

                            INITIAL TIME STEP SIZE =   86400.00    
1
                            STRESS PERIOD NO. 1418, LENGTH =   86400.00    
                            -----------------------------------------------

                              NUMBER OF TIME STEPS =     1

                               MULTIPLIER FOR DELT =     1.000

                            INITIAL TIME STEP SIZE =   86400.00    
1
                            STRESS PERIOD NO. 1419, LENGTH =   86400.00    
                            -----------------------------------------------

                              NUMBER OF TIME STEPS =     1

                               MULTIPLIER FOR DELT =     1.000

                            INITIAL TIME STEP SIZE =   86400.00    
1
                            STRESS PERIOD NO. 1420, LENGTH =   86400.00    
                            -----------------------------------------------

                              NUMBER OF TIME STEPS =     1

                               MULTIPLIER FOR DELT =     1.000

                            INITIAL TIME STEP SIZE =   86400.00    
1
                            STRESS PERIOD NO. 1421, LENGTH =   86400.00    
                            -----------------------------------------------

                              NUMBER OF TIME STEPS =     1

                               MULTIPLIER FOR DELT =     1.000

                            INITIAL TIME STEP SIZE =   86400.00    
1
                            STRESS PERIOD NO. 1422, LENGTH =   86400.00    
                            -----------------------------------------------

                              NUMBER OF TIME STEPS =     1

                               MULTIPLIER FOR DELT =     1.000

                            INITIAL TIME STEP SIZE =   86400.00    
1
                            STRESS PERIOD NO. 1423, LENGTH =   86400.00    
                            -----------------------------------------------

                              NUMBER OF TIME STEPS =     1

                               MULTIPLIER FOR DELT =     1.000

                            INITIAL TIME STEP SIZE =   86400.00    
1
                            STRESS PERIOD NO. 1424, LENGTH =   86400.00    
                            -----------------------------------------------

                              NUMBER OF TIME STEPS =     1

                               MULTIPLIER FOR DELT =     1.000

                            INITIAL TIME STEP SIZE =   86400.00    
1
                            STRESS PERIOD NO. 1425, LENGTH =   86400.00    
                            -----------------------------------------------

                              NUMBER OF TIME STEPS =     1

                               MULTIPLIER FOR DELT =     1.000

                            INITIAL TIME STEP SIZE =   86400.00    
1
                            STRESS PERIOD NO. 1426, LENGTH =   86400.00    
                            -----------------------------------------------

                              NUMBER OF TIME STEPS =     1

                               MULTIPLIER FOR DELT =     1.000

                            INITIAL TIME STEP SIZE =   86400.00    
1
                            STRESS PERIOD NO. 1427, LENGTH =   86400.00    
                            -----------------------------------------------

                              NUMBER OF TIME STEPS =     1

                               MULTIPLIER FOR DELT =     1.000

                            INITIAL TIME STEP SIZE =   86400.00    
1
                            STRESS PERIOD NO. 1428, LENGTH =   86400.00    
                            -----------------------------------------------

                              NUMBER OF TIME STEPS =     1

                               MULTIPLIER FOR DELT =     1.000

                            INITIAL TIME STEP SIZE =   86400.00    
1
                            STRESS PERIOD NO. 1429, LENGTH =   86400.00    
                            -----------------------------------------------

                              NUMBER OF TIME STEPS =     1

                               MULTIPLIER FOR DELT =     1.000

                            INITIAL TIME STEP SIZE =   86400.00    
1
                            STRESS PERIOD NO. 1430, LENGTH =   86400.00    
                            -----------------------------------------------

                              NUMBER OF TIME STEPS =     1

                               MULTIPLIER FOR DELT =     1.000

                            INITIAL TIME STEP SIZE =   86400.00    
1
                            STRESS PERIOD NO. 1431, LENGTH =   86400.00    
                            -----------------------------------------------

                              NUMBER OF TIME STEPS =     1

                               MULTIPLIER FOR DELT =     1.000

                            INITIAL TIME STEP SIZE =   86400.00    
1
                            STRESS PERIOD NO. 1432, LENGTH =   86400.00    
                            -----------------------------------------------

                              NUMBER OF TIME STEPS =     1

                               MULTIPLIER FOR DELT =     1.000

                            INITIAL TIME STEP SIZE =   86400.00    
1
                            STRESS PERIOD NO. 1433, LENGTH =   86400.00    
                            -----------------------------------------------

                              NUMBER OF TIME STEPS =     1

                               MULTIPLIER FOR DELT =     1.000

                            INITIAL TIME STEP SIZE =   86400.00    
1
                            STRESS PERIOD NO. 1434, LENGTH =   86400.00    
                            -----------------------------------------------

                              NUMBER OF TIME STEPS =     1

                               MULTIPLIER FOR DELT =     1.000

                            INITIAL TIME STEP SIZE =   86400.00    
1
                            STRESS PERIOD NO. 1435, LENGTH =   86400.00    
                            -----------------------------------------------

                              NUMBER OF TIME STEPS =     1

                               MULTIPLIER FOR DELT =     1.000

                            INITIAL TIME STEP SIZE =   86400.00    
1
                            STRESS PERIOD NO. 1436, LENGTH =   86400.00    
                            -----------------------------------------------

                              NUMBER OF TIME STEPS =     1

                               MULTIPLIER FOR DELT =     1.000

                            INITIAL TIME STEP SIZE =   86400.00    
1
                            STRESS PERIOD NO. 1437, LENGTH =   86400.00    
                            -----------------------------------------------

                              NUMBER OF TIME STEPS =     1

                               MULTIPLIER FOR DELT =     1.000

                            INITIAL TIME STEP SIZE =   86400.00    
1
                            STRESS PERIOD NO. 1438, LENGTH =   86400.00    
                            -----------------------------------------------

                              NUMBER OF TIME STEPS =     1

                               MULTIPLIER FOR DELT =     1.000

                            INITIAL TIME STEP SIZE =   86400.00    
1
                            STRESS PERIOD NO. 1439, LENGTH =   86400.00    
                            -----------------------------------------------

                              NUMBER OF TIME STEPS =     1

                               MULTIPLIER FOR DELT =     1.000

                            INITIAL TIME STEP SIZE =   86400.00    
1
                            STRESS PERIOD NO. 1440, LENGTH =   86400.00    
                            -----------------------------------------------

                              NUMBER OF TIME STEPS =     1

                               MULTIPLIER FOR DELT =     1.000

                            INITIAL TIME STEP SIZE =   86400.00    
1
                            STRESS PERIOD NO. 1441, LENGTH =   86400.00    
                            -----------------------------------------------

                              NUMBER OF TIME STEPS =     1

                               MULTIPLIER FOR DELT =     1.000

                            INITIAL TIME STEP SIZE =   86400.00    
1
                            STRESS PERIOD NO. 1442, LENGTH =   86400.00    
                            -----------------------------------------------

                              NUMBER OF TIME STEPS =     1

                               MULTIPLIER FOR DELT =     1.000

                            INITIAL TIME STEP SIZE =   86400.00    
1
                            STRESS PERIOD NO. 1443, LENGTH =   86400.00    
                            -----------------------------------------------

                              NUMBER OF TIME STEPS =     1

                               MULTIPLIER FOR DELT =     1.000

                            INITIAL TIME STEP SIZE =   86400.00    
1
                            STRESS PERIOD NO. 1444, LENGTH =   86400.00    
                            -----------------------------------------------

                              NUMBER OF TIME STEPS =     1

                               MULTIPLIER FOR DELT =     1.000

                            INITIAL TIME STEP SIZE =   86400.00    
1
                            STRESS PERIOD NO. 1445, LENGTH =   86400.00    
                            -----------------------------------------------

                              NUMBER OF TIME STEPS =     1

                               MULTIPLIER FOR DELT =     1.000

                            INITIAL TIME STEP SIZE =   86400.00    
1
                            STRESS PERIOD NO. 1446, LENGTH =   86400.00    
                            -----------------------------------------------

                              NUMBER OF TIME STEPS =     1

                               MULTIPLIER FOR DELT =     1.000

                            INITIAL TIME STEP SIZE =   86400.00    
1
                            STRESS PERIOD NO. 1447, LENGTH =   86400.00    
                            -----------------------------------------------

                              NUMBER OF TIME STEPS =     1

                               MULTIPLIER FOR DELT =     1.000

                            INITIAL TIME STEP SIZE =   86400.00    
1
                            STRESS PERIOD NO. 1448, LENGTH =   86400.00    
                            -----------------------------------------------

                              NUMBER OF TIME STEPS =     1

                               MULTIPLIER FOR DELT =     1.000

                            INITIAL TIME STEP SIZE =   86400.00    
1
                            STRESS PERIOD NO. 1449, LENGTH =   86400.00    
                            -----------------------------------------------

                              NUMBER OF TIME STEPS =     1

                               MULTIPLIER FOR DELT =     1.000

                            INITIAL TIME STEP SIZE =   86400.00    
1
                            STRESS PERIOD NO. 1450, LENGTH =   86400.00    
                            -----------------------------------------------

                              NUMBER OF TIME STEPS =     1

                               MULTIPLIER FOR DELT =     1.000

                            INITIAL TIME STEP SIZE =   86400.00    
1
                            STRESS PERIOD NO. 1451, LENGTH =   86400.00    
                            -----------------------------------------------

                              NUMBER OF TIME STEPS =     1

                               MULTIPLIER FOR DELT =     1.000

                            INITIAL TIME STEP SIZE =   86400.00    
1
                            STRESS PERIOD NO. 1452, LENGTH =   86400.00    
                            -----------------------------------------------

                              NUMBER OF TIME STEPS =     1

                               MULTIPLIER FOR DELT =     1.000

                            INITIAL TIME STEP SIZE =   86400.00    
1
                            STRESS PERIOD NO. 1453, LENGTH =   86400.00    
                            -----------------------------------------------

                              NUMBER OF TIME STEPS =     1

                               MULTIPLIER FOR DELT =     1.000

                            INITIAL TIME STEP SIZE =   86400.00    
1
                            STRESS PERIOD NO. 1454, LENGTH =   86400.00    
                            -----------------------------------------------

                              NUMBER OF TIME STEPS =     1

                               MULTIPLIER FOR DELT =     1.000

                            INITIAL TIME STEP SIZE =   86400.00    
1
                            STRESS PERIOD NO. 1455, LENGTH =   86400.00    
                            -----------------------------------------------

                              NUMBER OF TIME STEPS =     1

                               MULTIPLIER FOR DELT =     1.000

                            INITIAL TIME STEP SIZE =   86400.00    
1
                            STRESS PERIOD NO. 1456, LENGTH =   86400.00    
                            -----------------------------------------------

                              NUMBER OF TIME STEPS =     1

                               MULTIPLIER FOR DELT =     1.000

                            INITIAL TIME STEP SIZE =   86400.00    
1
                            STRESS PERIOD NO. 1457, LENGTH =   86400.00    
                            -----------------------------------------------

                              NUMBER OF TIME STEPS =     1

                               MULTIPLIER FOR DELT =     1.000

                            INITIAL TIME STEP SIZE =   86400.00    
1
                            STRESS PERIOD NO. 1458, LENGTH =   86400.00    
                            -----------------------------------------------

                              NUMBER OF TIME STEPS =     1

                               MULTIPLIER FOR DELT =     1.000

                            INITIAL TIME STEP SIZE =   86400.00    
1
                            STRESS PERIOD NO. 1459, LENGTH =   86400.00    
                            -----------------------------------------------

                              NUMBER OF TIME STEPS =     1

                               MULTIPLIER FOR DELT =     1.000

                            INITIAL TIME STEP SIZE =   86400.00    
1
                            STRESS PERIOD NO. 1460, LENGTH =   86400.00    
                            -----------------------------------------------

                              NUMBER OF TIME STEPS =     1

                               MULTIPLIER FOR DELT =     1.000

                            INITIAL TIME STEP SIZE =   86400.00    

 MEMORY MANAGER TOTAL STORAGE BY DATA TYPE, IN MEGABYTES
 -------------------------------
                    ALLOCATED   
 DATA TYPE           MEMORY     
 -------------------------------
 Character        5.03300000E-03
 Logical          4.40000000E-05
 Integer          0.61110000    
 Real             1.1304720     
 -------------------------------
 Total            1.7466490     
 -------------------------------


 
 Run end date and time (yyyy/mm/dd hh:mm:ss): 2021/08/20  9:34:50
 Elapsed run time: 18.563 Seconds
 Normal termination of simulation.
