                                   MODFLOW 6
                U.S. GEOLOGICAL SURVEY MODULAR HYDROLOGIC MODEL
                          GROUNDWATER FLOW MODEL (GWF)
                            VERSION 6.2.0 10/22/2020

   MODFLOW 6 compiled Oct 22 2020 09:26:42 with IFORT compiler (ver. 19.10.2)

This software has been approved for release by the U.S. Geological 
Survey (USGS). Although the software has been subjected to rigorous 
review, the USGS reserves the right to update the software as needed 
pursuant to further analysis and review. No warranty, expressed or 
implied, is made by the USGS or the U.S. Government as to the 
functionality of the software and related material nor shall the 
fact of release constitute any such warranty. Furthermore, the 
software is released on condition that neither the USGS nor the U.S. 
Government shall be held liable for any damages resulting from its 
authorized or unauthorized use. Also refer to the USGS Water 
Resources Software User Rights Notice for complete use, copyright, 
and distribution information.


System command used to initiate simulation:
C:\WRDAPP\mf6.2.0\bin\mf6

MODFLOW was compiled using uniform precision.

Real Variables
  KIND: 8
  TINY (smallest non-zero value):    2.225074-308
  HUGE (largest value):    1.797693+308
  PRECISION: 15
  BIT SIZE: 64

Integer Variables
  KIND: 4
  HUGE (largest value): 2147483647
  BIT SIZE: 32

Long Integer Variables
  KIND: 8
  HUGE (largest value): 9223372036854775807
  BIT SIZE: 64

Logical Variables
  KIND: 4
  BIT SIZE: 32
 

 OPENED modelo_Norte.dis
 FILE TYPE:DIS6                   UNIT 1005   STATUS:OLD                 
 FORMAT:FORMATTED              ACCESS:SEQUENTIAL          
 ACTION:READ                


 OPENED modelo_Norte.npf
 FILE TYPE:NPF6                   UNIT 1006   STATUS:OLD                 
 FORMAT:FORMATTED              ACCESS:SEQUENTIAL          
 ACTION:READ                


 OPENED modelo_Norte.rch
 FILE TYPE:RCH6                   UNIT 1007   STATUS:OLD                 
 FORMAT:FORMATTED              ACCESS:SEQUENTIAL          
 ACTION:READ                


 OPENED modelo_Norte.drn
 FILE TYPE:DRN6                   UNIT 1008   STATUS:OLD                 
 FORMAT:FORMATTED              ACCESS:SEQUENTIAL          
 ACTION:READ                


 OPENED modelo_Norte.chd
 FILE TYPE:CHD6                   UNIT 1009   STATUS:OLD                 
 FORMAT:FORMATTED              ACCESS:SEQUENTIAL          
 ACTION:READ                


 OPENED modelo_Norte.ghb
 FILE TYPE:GHB6                   UNIT 1010   STATUS:OLD                 
 FORMAT:FORMATTED              ACCESS:SEQUENTIAL          
 ACTION:READ                


 OPENED modelo_Norte.ic
 FILE TYPE:IC6                    UNIT 1011   STATUS:OLD                 
 FORMAT:FORMATTED              ACCESS:SEQUENTIAL          
 ACTION:READ                


 OPENED modelo_Norte.oc
 FILE TYPE:OC6                    UNIT 1012   STATUS:OLD                 
 FORMAT:FORMATTED              ACCESS:SEQUENTIAL          
 ACTION:READ                


 DIS -- STRUCTURED GRID DISCRETIZATION PACKAGE, VERSION 2 : 3/27/2014 - INPUT READ FROM UNIT 1005


 # File generated by Flopy version 3.3.2 on 06/08/2021 at 13:55:56.
 PROCESSING DISCRETIZATION OPTIONS
    XORIGIN SPECIFIED AS     1102385.12000000    
    YORIGIN SPECIFIED AS     1281362.22000000    
 END OF DISCRETIZATION OPTIONS
 MODEL LENGTH UNIT IS UNDEFINED
 PROCESSING DISCRETIZATION DIMENSIONS
    NLAY =       6
    NROW =      35
    NCOL =      44
 END OF DISCRETIZATION DIMENSIONS
 PROCESSING GRIDDATA
 END PROCESSING GRIDDATA

 THE SPECIFIED IDOMAIN RESULTS IN A REDUCED NUMBER OF CELLS.
 NUMBER OF USER NODES: 9240
 NUMBER OF NODES IN SOLUTION: 4652



 NPF -- NODE PROPERTY FLOW PACKAGE, VERSION 1, 3/30/2015 INPUT READ FROM UNIT 1006


 # File generated by Flopy version 3.3.2 on 06/08/2021 at 13:55:56.
 PROCESSING NPF OPTIONS
    CELL-BY-CELL FLOW INFORMATION WILL BE SAVED TO BINARY FILE WHENEVER ICBCFL IS NOT ZERO.
    VALUES SPECIFIED FOR K33 ARE ANISOTROPY RATIOS AND WILL BE MULTIPLIED BY K BEFORE BEING USED IN CALCULATIONS.
 END OF NPF OPTIONS

 DRN   -- DRN PACKAGE, VERSION 8, 2/22/2014 INPUT READ FROM UNIT 1008
 # File generated by Flopy version 3.3.2 on 06/08/2021 at 13:55:56.

 PROCESSING DRN OPTIONS
    LISTS OF DRN CELLS WILL BE PRINTED.
    DRN FLOWS WILL BE PRINTED TO LISTING FILE.
    FLOWS WILL BE SAVED TO BUDGET FILE SPECIFIED IN OUTPUT CONTROL
 END OF DRN OPTIONS

 PROCESSING DRN DIMENSIONS
    MAXBOUND =     290
 END OF DRN DIMENSIONS

 GHB   -- GHB PACKAGE, VERSION 8, 2/22/2014 INPUT READ FROM UNIT 1010
 # File generated by Flopy version 3.3.2 on 06/08/2021 at 13:55:56.

 PROCESSING GHB OPTIONS
    LISTS OF GHB CELLS WILL BE PRINTED.
    GHB FLOWS WILL BE PRINTED TO LISTING FILE.
    FLOWS WILL BE SAVED TO BUDGET FILE SPECIFIED IN OUTPUT CONTROL
 END OF GHB OPTIONS

 PROCESSING GHB DIMENSIONS
    MAXBOUND =     149
 END OF GHB DIMENSIONS

 RCH   -- RCH PACKAGE, VERSION 8, 2/22/2014 INPUT READ FROM UNIT 1007
 # File generated by Flopy version 3.3.2 on 06/08/2021 at 13:55:56.

 PROCESSING RCH OPTIONS
    LISTS OF RCH CELLS WILL BE PRINTED.
    RCH FLOWS WILL BE PRINTED TO LISTING FILE.
    FLOWS WILL BE SAVED TO BUDGET FILE SPECIFIED IN OUTPUT CONTROL
 END OF RCH OPTIONS

 PROCESSING RCH DIMENSIONS
    MAXBOUND =     839
 END OF RCH DIMENSIONS

 CHD   -- CHD PACKAGE, VERSION 8, 2/22/2014 INPUT READ FROM UNIT 1009
 # File generated by Flopy version 3.3.2 on 06/08/2021 at 13:55:56.

 PROCESSING CHD OPTIONS
    LISTS OF CHD CELLS WILL BE PRINTED.
    CHD FLOWS WILL BE PRINTED TO LISTING FILE.
    FLOWS WILL BE SAVED TO BUDGET FILE SPECIFIED IN OUTPUT CONTROL
 END OF CHD OPTIONS

 PROCESSING CHD DIMENSIONS
    MAXBOUND =     102
 END OF CHD DIMENSIONS

 IC -- INITIAL CONDITIONS PACKAGE, VERSION 8, 3/28/2015 INPUT READ FROM UNIT 1011
 # File generated by Flopy version 3.3.2 on 06/08/2021 at 13:55:56.
 PROCESSING GRIDDATA
 END PROCESSING GRIDDATA
 PROCESSING GRIDDATA

                ICELLTYPE = 1

 OPENED k_qd_qbg.txt
 FILE TYPE:OPEN/CLOSE   UNIT 1014   STATUS:OLD                 
 FORMAT:FORMATTED              ACCESS:SEQUENTIAL          
 ACTION:READ                


 OPENED k_qbo2.txt
 FILE TYPE:OPEN/CLOSE   UNIT 1015   STATUS:OLD                 
 FORMAT:FORMATTED              ACCESS:SEQUENTIAL          
 ACTION:READ                


 OPENED k_qbo2.txt
 FILE TYPE:OPEN/CLOSE   UNIT 1016   STATUS:OLD                 
 FORMAT:FORMATTED              ACCESS:SEQUENTIAL          
 ACTION:READ                


 OPENED k_qbo1.txt
 FILE TYPE:OPEN/CLOSE   UNIT 1017   STATUS:OLD                 
 FORMAT:FORMATTED              ACCESS:SEQUENTIAL          
 ACTION:READ                


 OPENED k_qbo1.txt
 FILE TYPE:OPEN/CLOSE   UNIT 1018   STATUS:OLD                 
 FORMAT:FORMATTED              ACCESS:SEQUENTIAL          
 ACTION:READ                


 OPENED k_roc.txt
 FILE TYPE:OPEN/CLOSE   UNIT 1019   STATUS:OLD                 
 FORMAT:FORMATTED              ACCESS:SEQUENTIAL          
 ACTION:READ                


 OPENED kv_qd_qbg.txt
 FILE TYPE:OPEN/CLOSE   UNIT 1020   STATUS:OLD                 
 FORMAT:FORMATTED              ACCESS:SEQUENTIAL          
 ACTION:READ                


 OPENED kv_qbo2.txt
 FILE TYPE:OPEN/CLOSE   UNIT 1021   STATUS:OLD                 
 FORMAT:FORMATTED              ACCESS:SEQUENTIAL          
 ACTION:READ                


 OPENED kv_qbo2.txt
 FILE TYPE:OPEN/CLOSE   UNIT 1022   STATUS:OLD                 
 FORMAT:FORMATTED              ACCESS:SEQUENTIAL          
 ACTION:READ                


 OPENED kv_qbo1.txt
 FILE TYPE:OPEN/CLOSE   UNIT 1023   STATUS:OLD                 
 FORMAT:FORMATTED              ACCESS:SEQUENTIAL          
 ACTION:READ                


 OPENED kv_qbo1.txt
 FILE TYPE:OPEN/CLOSE   UNIT 1024   STATUS:OLD                 
 FORMAT:FORMATTED              ACCESS:SEQUENTIAL          
 ACTION:READ                


 OPENED kv_roc.txt
 FILE TYPE:OPEN/CLOSE   UNIT 1025   STATUS:OLD                 
 FORMAT:FORMATTED              ACCESS:SEQUENTIAL          
 ACTION:READ                

 K22 not provided.  Assuming K22 = K.
 END PROCESSING GRIDDATA

 CELL CONVERSIONS FOR ITER.=0  STEP=0  PERIOD=0   (NODE or LRC)
     DRY             (1,2,8) DRY             (1,3,7) DRY             (1,4,7) DRY             (1,5,7) DRY            (1,7,13)
     DRY            (1,7,14) DRY            (1,8,13) DRY            (1,8,14) DRY            (1,8,15) DRY            (1,9,13)
     DRY            (1,9,14) DRY            (1,9,15) DRY            (1,10,7) DRY           (1,10,12) DRY           (1,10,13)
     DRY           (1,10,14) DRY           (1,10,15) DRY            (1,11,7) DRY           (1,11,12) DRY           (1,11,13)
     DRY           (1,11,14) DRY           (1,11,15) DRY           (1,12,12) DRY           (1,12,13) DRY           (1,12,14)
     DRY           (1,12,15) DRY            (1,13,7) DRY           (1,13,11) DRY           (1,13,12) DRY           (1,13,13)
     DRY           (1,13,14) DRY           (1,13,15) DRY           (1,13,16) DRY           (1,14,10) DRY           (1,14,11)
     DRY           (1,14,12) DRY           (1,14,13) DRY           (1,14,14) DRY           (1,14,15) DRY           (1,14,16)
     DRY            (1,15,8) DRY           (1,15,10) DRY           (1,15,11) DRY           (1,15,12) DRY           (1,15,13)
     DRY           (1,15,14) DRY           (1,15,15) DRY           (1,15,16) DRY            (1,16,5) DRY            (1,16,8)
     DRY           (1,16,10) DRY           (1,16,11) DRY           (1,16,12) DRY           (1,16,13) DRY           (1,16,14)
     DRY           (1,16,15) DRY           (1,16,16) DRY            (1,17,3) DRY            (1,17,4) DRY            (1,17,6)
     DRY            (1,17,7) DRY            (1,17,8) DRY           (1,17,10) DRY           (1,17,11) DRY           (1,17,12)
     DRY           (1,17,13) DRY           (1,17,14) DRY           (1,17,15) DRY           (1,17,16) DRY           (1,17,17)
     DRY            (1,18,2) DRY            (1,18,3) DRY            (1,18,4) DRY            (1,18,6) DRY            (1,18,7)
     DRY            (1,18,8) DRY            (1,18,9) DRY           (1,18,10) DRY           (1,18,11) DRY           (1,18,12)
     DRY           (1,18,13) DRY           (1,18,14) DRY           (1,18,15) DRY           (1,18,16) DRY           (1,18,17)
     DRY            (1,19,2) DRY            (1,19,3) DRY            (1,19,4) DRY            (1,19,5) DRY            (1,19,6)
     DRY            (1,19,7) DRY            (1,19,8) DRY            (1,19,9) DRY           (1,19,10) DRY           (1,19,11)
     DRY           (1,19,12) DRY           (1,19,13) DRY           (1,19,14) DRY           (1,19,15) DRY           (1,19,16)
     DRY           (1,19,17) DRY            (1,20,2) DRY            (1,20,3) DRY            (1,20,4) DRY            (1,20,5)
     DRY            (1,20,6) DRY            (1,20,7) DRY            (1,20,8) DRY            (1,20,9) DRY           (1,20,10)
     DRY           (1,20,11) DRY           (1,20,12) DRY           (1,20,13) DRY           (1,20,14) DRY           (1,20,15)
     DRY           (1,20,16) DRY           (1,20,17) DRY            (1,21,2) DRY            (1,21,3) DRY            (1,21,4)
     DRY            (1,21,5) DRY            (1,21,6) DRY            (1,21,7) DRY            (1,21,8) DRY            (1,21,9)
     DRY           (1,21,10) DRY           (1,21,11) DRY           (1,21,12) DRY           (1,21,13) DRY           (1,21,14)
     DRY           (1,21,15) DRY           (1,21,16) DRY           (1,21,17) DRY           (1,21,18) DRY            (1,22,2)
     DRY            (1,22,3) DRY            (1,22,4) DRY            (1,22,5) DRY            (1,22,6) DRY            (1,22,7)
     DRY            (1,22,8) DRY            (1,22,9) DRY           (1,22,10) DRY           (1,22,11) DRY           (1,22,12)
     DRY           (1,22,13) DRY           (1,22,14) DRY           (1,22,15) DRY           (1,22,16) DRY           (1,22,17)
     DRY           (1,22,18) DRY            (1,23,2) DRY            (1,23,3) DRY            (1,23,4) DRY            (1,23,5)
     DRY            (1,23,6) DRY            (1,23,7) DRY            (1,23,8) DRY            (1,23,9) DRY           (1,23,10)
     DRY           (1,23,11) DRY           (1,23,12) DRY           (1,23,13) DRY           (1,23,14) DRY           (1,23,15)
     DRY           (1,23,16) DRY           (1,23,17) DRY           (1,23,18) DRY            (1,24,3) DRY            (1,24,4)
     DRY            (1,24,5) DRY            (1,24,6) DRY            (1,24,7) DRY            (1,24,8) DRY            (1,24,9)
     DRY           (1,24,10) DRY           (1,24,11) DRY           (1,24,12) DRY           (1,24,13) DRY           (1,24,14)
     DRY           (1,24,15) DRY           (1,24,16) DRY           (1,24,17) DRY           (1,24,18) DRY            (1,25,3)
     DRY            (1,25,4) DRY            (1,25,5) DRY            (1,25,6) DRY            (1,25,7) DRY            (1,25,8)
     DRY            (1,25,9) DRY           (1,25,10) DRY           (1,25,11) DRY           (1,25,12) DRY           (1,25,13)
     DRY           (1,25,14) DRY           (1,25,15) DRY           (1,25,16) DRY           (1,25,17) DRY           (1,25,18)
     DRY           (1,25,22) DRY            (1,26,4) DRY            (1,26,5) DRY            (1,26,6) DRY            (1,26,7)
     DRY            (1,26,8) DRY            (1,26,9) DRY           (1,26,10) DRY           (1,26,11) DRY           (1,26,12)
     DRY           (1,26,13) DRY           (1,26,14) DRY           (1,26,15) DRY           (1,26,16) DRY           (1,26,17)
     DRY           (1,26,18) DRY           (1,26,19) DRY           (1,26,20) DRY           (1,26,21) DRY           (1,26,22)
     DRY           (1,26,23) DRY           (1,26,24) DRY           (1,26,29) DRY            (1,27,5) DRY            (1,27,6)
     DRY            (1,27,7) DRY            (1,27,8) DRY            (1,27,9) DRY           (1,27,10) DRY           (1,27,11)
     DRY           (1,27,12) DRY           (1,27,13) DRY           (1,27,14) DRY           (1,27,15) DRY           (1,27,16)
     DRY           (1,27,17) DRY           (1,27,18) DRY           (1,27,19) DRY           (1,27,20) DRY           (1,27,21)
     DRY           (1,27,22) DRY           (1,27,23) DRY           (1,27,24) DRY           (1,27,28) DRY           (1,27,29)
     DRY            (1,28,5) DRY            (1,28,6) DRY            (1,28,7) DRY            (1,28,8) DRY            (1,28,9)
     DRY           (1,28,10) DRY           (1,28,11) DRY           (1,28,12) DRY           (1,28,13) DRY           (1,28,14)
     DRY           (1,28,15) DRY           (1,28,16) DRY           (1,28,17) DRY           (1,28,18) DRY           (1,28,19)
     DRY           (1,28,20) DRY           (1,28,21) DRY           (1,28,22) DRY           (1,28,23) DRY           (1,28,24)
     DRY           (1,28,29) DRY            (1,29,6) DRY            (1,29,7) DRY            (1,29,8) DRY            (1,29,9)
     DRY           (1,29,10) DRY           (1,29,11) DRY           (1,29,12) DRY           (1,29,13) DRY           (1,29,14)
     DRY           (1,29,15) DRY           (1,29,16) DRY           (1,29,17) DRY           (1,29,18) DRY           (1,29,19)
     DRY           (1,29,20) DRY           (1,29,22) DRY           (1,29,23) DRY           (1,29,24) DRY           (1,29,25)
     DRY           (1,29,26) DRY           (1,29,27) DRY           (1,29,28) DRY           (1,29,29) DRY           (1,29,30)
     DRY           (1,29,42) DRY            (1,30,8) DRY            (1,30,9) DRY           (1,30,10) DRY           (1,30,11)
     DRY           (1,30,12) DRY           (1,30,13) DRY           (1,30,14) DRY           (1,30,15) DRY           (1,30,16)
     DRY           (1,30,17) DRY           (1,30,18) DRY           (1,30,19) DRY           (1,30,20) DRY           (1,30,21)
     DRY           (1,30,22) DRY           (1,30,23) DRY           (1,30,24) DRY           (1,30,25) DRY           (1,30,26)
     DRY           (1,30,27) DRY           (1,30,28) DRY           (1,30,29) DRY           (1,30,30) DRY           (1,30,31)
     DRY           (1,30,32) DRY           (1,30,37) DRY           (1,30,42) DRY           (1,30,43) DRY            (1,31,9)
     DRY           (1,31,10) DRY           (1,31,11) DRY           (1,31,12) DRY           (1,31,13) DRY           (1,31,14)
     DRY           (1,31,15) DRY           (1,31,16) DRY           (1,31,17) DRY           (1,31,18) DRY           (1,31,19)
     DRY           (1,31,20) DRY           (1,31,21) DRY           (1,31,22) DRY           (1,31,23) DRY           (1,31,24)
     DRY           (1,31,25) DRY           (1,31,26) DRY           (1,31,27) DRY           (1,31,28) DRY           (1,31,29)
     DRY           (1,31,30) DRY           (1,31,31) DRY           (1,31,32) DRY           (1,31,33) DRY           (1,31,34)
     DRY           (1,31,35) DRY           (1,31,36) DRY           (1,31,37) DRY           (1,31,38) DRY           (1,31,41)
     DRY           (1,31,42) DRY           (1,31,43) DRY           (1,31,44) DRY           (1,32,10) DRY           (1,32,11)
     DRY           (1,32,12) DRY           (1,32,13) DRY           (1,32,14) DRY           (1,32,15) DRY           (1,32,16)
     DRY           (1,32,17) DRY           (1,32,18) DRY           (1,32,19) DRY           (1,32,20) DRY           (1,32,21)
     DRY           (1,32,22) DRY           (1,32,23) DRY           (1,32,24) DRY           (1,32,25) DRY           (1,32,26)
     DRY           (1,32,27) DRY           (1,32,28) DRY           (1,32,29) DRY           (1,32,30) DRY           (1,32,31)
     DRY           (1,32,32) DRY           (1,32,33) DRY           (1,32,34) DRY           (1,32,35) DRY           (1,32,36)
     DRY           (1,32,37) DRY           (1,32,38) DRY           (1,32,41) DRY           (1,32,42) DRY           (1,32,43)
     DRY           (1,33,11) DRY           (1,33,12) DRY           (1,33,13) DRY           (1,33,14) DRY           (1,33,15)
     DRY           (1,33,16) DRY           (1,33,17) DRY           (1,33,18) DRY           (1,33,19) DRY           (1,33,20)
     DRY           (1,33,21) DRY           (1,33,22) DRY           (1,33,23) DRY           (1,33,24) DRY           (1,33,25)
     DRY           (1,33,26) DRY           (1,33,27) DRY           (1,33,28) DRY           (1,33,29) DRY           (1,33,30)
     DRY           (1,33,31) DRY           (1,33,32) DRY           (1,33,33) DRY           (1,33,34) DRY           (1,33,35)
     DRY           (1,33,36) DRY           (1,33,37) DRY           (1,33,38) DRY           (1,33,40) DRY           (1,33,41)
     DRY           (1,33,42) DRY           (1,34,14) DRY           (1,34,15) DRY           (1,34,16) DRY           (1,34,17)
     DRY           (1,34,18) DRY           (1,34,19) DRY           (1,34,20) DRY           (1,34,21) DRY           (1,34,22)
     DRY           (1,34,23) DRY           (1,34,24) DRY           (1,34,25) DRY           (1,34,26) DRY           (1,34,27)
     DRY           (1,34,28) DRY           (1,34,29) DRY           (1,34,30) DRY           (1,34,31) DRY           (1,34,32)
     DRY           (1,34,33) DRY           (1,35,15) DRY           (1,35,16) DRY           (1,35,17) DRY           (1,35,18)
     DRY           (1,35,19) DRY           (1,35,20) DRY           (1,35,21) DRY           (1,35,22) DRY           (2,10,14)
     DRY           (2,10,15) DRY           (2,11,15) DRY           (2,12,14) DRY           (2,12,15) DRY           (2,13,13)
     DRY           (2,13,14) DRY           (2,13,15) DRY           (2,14,13) DRY           (2,14,14) DRY           (2,14,15)
     DRY           (2,15,13) DRY           (2,15,14) DRY           (2,15,15) DRY           (2,16,10) DRY           (2,16,12)
     DRY           (2,16,13) DRY           (2,16,14) DRY           (2,16,15) DRY           (2,17,10) DRY           (2,17,11)
     DRY           (2,17,12) DRY           (2,17,13) DRY           (2,17,14) DRY           (2,17,15) DRY           (2,17,16)
     DRY           (2,18,10) DRY           (2,18,12) DRY           (2,18,14) DRY           (2,18,15) DRY           (2,18,16)
     DRY            (2,19,9) DRY           (2,19,10) DRY           (2,19,11) DRY           (2,19,12) DRY           (2,19,13)
     DRY           (2,19,14) DRY           (2,19,15) DRY           (2,19,16) DRY           (2,19,17) DRY            (2,20,8)
     DRY            (2,20,9) DRY           (2,20,10) DRY           (2,20,11) DRY           (2,20,12) DRY           (2,20,13)
     DRY           (2,20,14) DRY           (2,20,15) DRY           (2,20,16) DRY           (2,20,17) DRY            (2,21,8)
     DRY            (2,21,9) DRY           (2,21,10) DRY           (2,21,11) DRY           (2,21,12) DRY           (2,21,13)
     DRY           (2,21,14) DRY           (2,21,15) DRY           (2,21,16) DRY           (2,21,17) DRY            (2,22,6)
     DRY            (2,22,7) DRY            (2,22,8) DRY            (2,22,9) DRY           (2,22,10) DRY           (2,22,11)
     DRY           (2,22,12) DRY           (2,22,13) DRY           (2,22,14) DRY           (2,22,15) DRY           (2,22,16)
     DRY           (2,22,17) DRY            (2,23,5) DRY            (2,23,6) DRY            (2,23,7) DRY            (2,23,8)
     DRY            (2,23,9) DRY           (2,23,10) DRY           (2,23,11) DRY           (2,23,12) DRY           (2,23,13)
     DRY           (2,23,14) DRY           (2,23,15) DRY           (2,23,16) DRY           (2,23,17) DRY            (2,24,5)
     DRY            (2,24,7) DRY            (2,24,8) DRY            (2,24,9) DRY           (2,24,10) DRY           (2,24,11)
     DRY           (2,24,12) DRY           (2,24,13) DRY           (2,24,14) DRY           (2,24,15) DRY           (2,24,16)
     DRY           (2,24,17) DRY            (2,25,7) DRY            (2,25,8) DRY            (2,25,9) DRY           (2,25,10)
     DRY           (2,25,11) DRY           (2,25,12) DRY           (2,25,13) DRY           (2,25,14) DRY           (2,25,15)
     DRY           (2,25,16) DRY           (2,25,17) DRY            (2,26,9) DRY           (2,26,10) DRY           (2,26,11)
     DRY           (2,26,12) DRY           (2,26,13) DRY           (2,26,14) DRY           (2,26,15) DRY           (2,26,16)
     DRY           (2,26,17) DRY            (2,27,9) DRY           (2,27,10) DRY           (2,27,11) DRY           (2,27,12)
     DRY           (2,27,13) DRY           (2,27,14) DRY           (2,27,15) DRY           (2,27,16) DRY           (2,27,17)
     DRY           (2,27,18) DRY            (2,28,7) DRY            (2,28,8) DRY            (2,28,9) DRY           (2,28,10)
     DRY           (2,28,11) DRY           (2,28,12) DRY           (2,28,13) DRY           (2,28,14) DRY           (2,28,15)
     DRY           (2,28,16) DRY           (2,28,17) DRY           (2,28,18) DRY            (2,29,9) DRY           (2,29,10)
     DRY           (2,29,11) DRY           (2,29,12) DRY           (2,29,13) DRY           (2,29,14) DRY           (2,29,15)
     DRY           (2,29,16) DRY           (2,29,17) DRY           (2,29,18) DRY           (2,29,19) DRY           (2,29,26)
     DRY           (2,29,27) DRY           (2,29,28) DRY            (2,30,9) DRY           (2,30,10) DRY           (2,30,11)
     DRY           (2,30,12) DRY           (2,30,13) DRY           (2,30,14) DRY           (2,30,15) DRY           (2,30,16)
     DRY           (2,30,17) DRY           (2,30,18) DRY           (2,30,19) DRY           (2,30,23) DRY           (2,30,24)
     DRY           (2,30,25) DRY           (2,30,26) DRY           (2,30,27) DRY           (2,30,28) DRY           (2,30,29)
     DRY           (2,31,10) DRY           (2,31,11) DRY           (2,31,12) DRY           (2,31,13) DRY           (2,31,14)
     DRY           (2,31,15) DRY           (2,31,16) DRY           (2,31,17) DRY           (2,31,18) DRY           (2,31,19)
     DRY           (2,31,20) DRY           (2,31,21) DRY           (2,31,22) DRY           (2,31,23) DRY           (2,31,24)
     DRY           (2,31,25) DRY           (2,31,26) DRY           (2,31,27) DRY           (2,31,28) DRY           (2,31,29)
     DRY           (2,31,30) DRY           (2,31,31) DRY           (2,31,42) DRY           (2,32,12) DRY           (2,32,13)
     DRY           (2,32,14) DRY           (2,32,15) DRY           (2,32,16) DRY           (2,32,17) DRY           (2,32,18)
     DRY           (2,32,19) DRY           (2,32,20) DRY           (2,32,21) DRY           (2,32,22) DRY           (2,32,23)
     DRY           (2,32,24) DRY           (2,32,25) DRY           (2,32,26) DRY           (2,32,27) DRY           (2,32,28)
     DRY           (2,32,29) DRY           (2,32,30) DRY           (2,32,31) DRY           (2,32,32) DRY           (2,32,33)
     DRY           (2,32,34) DRY           (2,32,42) DRY           (2,32,43) DRY           (2,33,13) DRY           (2,33,14)
     DRY           (2,33,15) DRY           (2,33,16) DRY           (2,33,17) DRY           (2,33,18) DRY           (2,33,19)
     DRY           (2,33,20) DRY           (2,33,21) DRY           (2,33,22) DRY           (2,33,23) DRY           (2,33,24)
     DRY           (2,33,25) DRY           (2,33,26) DRY           (2,33,27) DRY           (2,33,28) DRY           (2,33,29)
     DRY           (2,33,30) DRY           (2,33,31) DRY           (2,33,32) DRY           (2,33,33) DRY           (2,33,34)
     DRY           (2,34,15) DRY           (2,34,16) DRY           (2,34,17) DRY           (2,34,18) DRY           (2,34,19)
     DRY           (2,34,20) DRY           (2,34,21) DRY           (2,34,22) DRY           (2,34,23) DRY           (2,34,24)
     DRY           (2,34,25) DRY           (2,34,26) DRY           (2,34,27) DRY           (2,34,28) DRY           (2,34,29)
     DRY           (2,35,16) DRY           (2,35,17) DRY           (2,35,18) DRY           (2,35,19) DRY           (3,10,14)
     DRY           (3,10,15) DRY           (3,11,15) DRY           (3,13,15) DRY           (3,14,15) DRY           (3,15,15)
     DRY           (3,16,10) DRY           (3,16,12) DRY           (3,16,14) DRY           (3,16,15) DRY           (3,17,11)
     DRY           (3,17,12) DRY           (3,17,13) DRY           (3,17,14) DRY           (3,17,15) DRY           (3,18,10)
     DRY           (3,18,12) DRY           (3,18,14) DRY           (3,18,15) DRY           (3,19,10) DRY           (3,19,11)
     DRY           (3,19,12) DRY           (3,19,13) DRY           (3,19,14) DRY           (3,19,15) DRY           (3,19,16)
     DRY            (3,20,8) DRY           (3,20,11) DRY           (3,20,12) DRY           (3,20,13) DRY           (3,20,14)
     DRY           (3,20,15) DRY           (3,20,16) DRY            (3,21,8) DRY           (3,21,11) DRY           (3,21,12)
     DRY           (3,21,13) DRY           (3,21,14) DRY           (3,21,15) DRY           (3,21,16) DRY            (3,22,6)
     DRY            (3,22,7) DRY            (3,22,8) DRY           (3,22,10) DRY           (3,22,11) DRY           (3,22,12)
     DRY           (3,22,13) DRY           (3,22,14) DRY           (3,22,15) DRY           (3,22,16) DRY            (3,23,5)
     DRY            (3,23,6) DRY            (3,23,7) DRY            (3,23,8) DRY           (3,23,10) DRY           (3,23,11)
     DRY           (3,23,12) DRY           (3,23,13) DRY           (3,23,14) DRY           (3,23,15) DRY           (3,23,16)
     DRY            (3,24,5) DRY            (3,24,7) DRY            (3,24,8) DRY           (3,24,10) DRY           (3,24,11)
     DRY           (3,24,12) DRY           (3,24,13) DRY           (3,24,14) DRY           (3,24,15) DRY           (3,24,16)
     DRY            (3,25,7) DRY            (3,25,8) DRY           (3,25,10) DRY           (3,25,11) DRY           (3,25,12)
     DRY           (3,25,13) DRY           (3,25,14) DRY           (3,25,15) DRY           (3,25,16) DRY           (3,25,17)
     DRY           (3,26,10) DRY           (3,26,11) DRY           (3,26,12) DRY           (3,26,13) DRY           (3,26,14)
     DRY           (3,26,15) DRY           (3,26,16) DRY           (3,26,17) DRY            (3,27,9) DRY           (3,27,10)
     DRY           (3,27,11) DRY           (3,27,12) DRY           (3,27,13) DRY           (3,27,14) DRY           (3,27,15)
     DRY           (3,27,16) DRY           (3,27,17) DRY            (3,28,7) DRY            (3,28,8) DRY            (3,28,9)
     DRY           (3,28,10) DRY           (3,28,11) DRY           (3,28,12) DRY           (3,28,13) DRY           (3,28,14)
     DRY           (3,28,15) DRY           (3,28,16) DRY           (3,28,17) DRY           (3,29,10) DRY           (3,29,11)
     DRY           (3,29,12) DRY           (3,29,13) DRY           (3,29,14) DRY           (3,29,15) DRY           (3,29,16)
     DRY           (3,29,17) DRY           (3,30,10) DRY           (3,30,11) DRY           (3,30,12) DRY           (3,30,13)
     DRY           (3,30,14) DRY           (3,30,15) DRY           (3,30,16) DRY           (3,30,17) DRY           (3,30,27)
     DRY           (3,30,28) DRY           (3,31,11) DRY           (3,31,12) DRY           (3,31,13) DRY           (3,31,14)
     DRY           (3,31,15) DRY           (3,31,16) DRY           (3,31,17) DRY           (3,31,24) DRY           (3,31,27)
     DRY           (3,31,28) DRY           (3,32,12) DRY           (3,32,13) DRY           (3,32,14) DRY           (3,32,15)
     DRY           (3,32,16) DRY           (3,32,17) DRY           (3,32,23) DRY           (3,32,24) DRY           (3,32,25)
     DRY           (3,32,26) DRY           (3,32,27) DRY           (3,32,28) DRY           (3,32,29) DRY           (3,33,13)
     DRY           (3,33,14) DRY           (3,33,15) DRY           (3,33,16) DRY           (3,33,17) DRY           (3,33,22)
     DRY           (3,33,23) DRY           (3,33,24) DRY           (3,33,25) DRY           (3,33,26) DRY           (3,33,27)
     DRY           (3,33,28) DRY           (3,33,29) DRY           (3,33,30) DRY           (3,34,15) DRY           (3,34,16)
     DRY           (3,34,17) DRY           (3,34,22) DRY           (3,34,23) DRY           (3,34,24) DRY           (3,34,25)
     DRY           (3,34,26) DRY           (3,34,27) DRY           (3,34,28) DRY           (3,34,29) DRY           (3,35,16)
     DRY           (3,35,17) DRY            (4,7,14) DRY            (4,8,14) DRY            (4,9,15) DRY           (4,15,11)
     DRY            (4,16,8) DRY           (4,16,11) DRY            (4,17,8) DRY           (4,17,11) DRY           (4,17,12)
     DRY           (4,17,13) DRY            (4,18,7) DRY            (4,18,8) DRY           (4,18,11) DRY           (4,18,12)
     DRY           (4,18,13) DRY           (4,18,14) DRY            (4,19,6) DRY            (4,19,7) DRY           (4,19,11)
     DRY           (4,19,12) DRY           (4,19,13) DRY           (4,19,14) DRY           (4,19,15) DRY            (4,20,6)
     DRY            (4,20,7) DRY            (4,20,8) DRY           (4,20,11) DRY           (4,20,12) DRY           (4,20,13)
     DRY           (4,20,14) DRY           (4,20,15) DRY            (4,21,6) DRY            (4,21,7) DRY            (4,21,8)
     DRY           (4,21,11) DRY           (4,21,12) DRY           (4,21,13) DRY           (4,21,14) DRY           (4,21,15)
     DRY            (4,22,3) DRY            (4,22,4) DRY            (4,22,5) DRY            (4,22,6) DRY            (4,22,7)
     DRY            (4,22,8) DRY           (4,22,11) DRY           (4,22,12) DRY           (4,22,13) DRY           (4,22,14)
     DRY           (4,22,15) DRY            (4,23,3) DRY            (4,23,4) DRY            (4,23,5) DRY            (4,23,6)
     DRY            (4,23,7) DRY            (4,23,8) DRY           (4,23,11) DRY           (4,23,12) DRY           (4,23,13)
     DRY           (4,23,14) DRY           (4,23,15) DRY            (4,24,4) DRY            (4,24,5) DRY            (4,24,6)
     DRY            (4,24,7) DRY            (4,24,8) DRY           (4,24,11) DRY           (4,24,12) DRY           (4,24,13)
     DRY           (4,24,14) DRY           (4,24,15) DRY            (4,25,4) DRY            (4,25,5) DRY            (4,25,6)
     DRY            (4,25,7) DRY            (4,25,8) DRY           (4,25,10) DRY           (4,25,11) DRY           (4,25,12)
     DRY           (4,25,13) DRY           (4,25,14) DRY           (4,25,15) DRY            (4,26,5) DRY            (4,26,6)
     DRY            (4,26,7) DRY            (4,26,8) DRY           (4,26,10) DRY           (4,26,11) DRY           (4,26,12)
     DRY           (4,26,13) DRY           (4,26,14) DRY           (4,26,15) DRY            (4,27,6) DRY            (4,27,7)
     DRY            (4,27,8) DRY           (4,27,10) DRY           (4,27,11) DRY           (4,27,12) DRY           (4,27,13)
     DRY           (4,27,14) DRY           (4,27,15) DRY            (4,28,6) DRY            (4,28,7) DRY            (4,28,8)
     DRY           (4,28,10) DRY           (4,28,11) DRY           (4,28,12) DRY           (4,28,13) DRY           (4,28,14)
     DRY           (4,28,15) DRY            (4,29,8) DRY           (4,29,11) DRY           (4,29,12) DRY           (4,29,13)
     DRY           (4,29,14) DRY           (4,29,15) DRY           (4,30,11) DRY           (4,30,12) DRY           (4,30,13)
     DRY           (4,30,14) DRY           (4,30,15) DRY           (4,30,16) DRY           (4,31,11) DRY           (4,31,12)
     DRY           (4,31,13) DRY           (4,31,14) DRY           (4,31,15) DRY           (4,32,12) DRY           (4,32,13)
     DRY           (4,32,14) DRY           (4,32,15) DRY           (4,33,13) DRY           (4,33,14) DRY           (4,33,15)
     DRY           (4,34,15) DRY           (5,18,12) DRY           (5,19,12) DRY            (5,20,8) DRY            (5,21,7)
     DRY            (5,21,8) DRY            (5,22,7) DRY            (5,22,8) DRY           (5,22,11) DRY            (5,23,6)
     DRY            (5,23,7) DRY            (5,23,8) DRY           (5,23,11) DRY            (5,24,6) DRY            (5,24,7)
     DRY            (5,24,8) DRY           (5,24,11) DRY            (5,25,6) DRY            (5,25,7) DRY            (5,25,8)
     DRY           (5,25,11) DRY            (5,26,6) DRY            (5,26,7) DRY            (5,26,8) DRY           (5,26,11)
     DRY            (5,27,6) DRY            (5,27,7) DRY            (5,27,8) DRY           (5,27,11) DRY            (5,28,6)
     DRY            (5,28,7) DRY            (5,28,8) DRY            (5,29,8) DRY           (5,29,13) DRY           (5,30,11)
     DRY           (5,30,12) DRY           (5,30,13) DRY           (5,31,11) DRY           (5,31,12) DRY           (5,31,13)
     DRY           (5,32,12) DRY           (5,32,13) DRY           (5,33,13)
    BINARY GRID INFORMATION WILL BE WRITTEN TO:
      UNIT NUMBER: 1026
      FILE NAME: D:\OneDrive - UNIVERSIDAD INDUSTRIAL DE SANTANDER\Maestria\06_Tesis\01_Tesis_Dev\09_Python\data\modelo_Norte\modelo_Norte.dis.grb

 OPENED D:\OneDrive - UNIVERSIDAD INDUSTRIAL DE SANTANDER\Maestria\06_Tesis\01_Tesis_Dev\09_Python\data\modelo_Norte\modelo_Norte.dis.grb
 FILE TYPE:DATA(BINARY)   UNIT 1026   STATUS:REPLACE             
 FORMAT:UNFORMATTED            ACCESS:STREAM              
 ACTION:READWRITE           

      THE LAST TIME STEP WILL BE PRINTED
      THE LAST TIME STEP WILL BE PRINTED
 # File generated by Flopy version 3.3.2 on 06/08/2021 at 13:55:56.

 PROCESSING OC OPTIONS

    BUDGET INFORMATION WILL BE WRITTEN TO:
      UNIT NUMBER: 1027
      FILE NAME: modelo_Norte.cbb

 OPENED modelo_Norte.cbb
 FILE TYPE:DATA(BINARY)   UNIT 1027   STATUS:REPLACE             
 FORMAT:UNFORMATTED            ACCESS:STREAM              
 ACTION:READWRITE           

    HEAD INFORMATION WILL BE WRITTEN TO:
      UNIT NUMBER: 1028
      FILE NAME: modelo_Norte.hds

 OPENED modelo_Norte.hds
 FILE TYPE:DATA(BINARY)   UNIT 1028   STATUS:REPLACE             
 FORMAT:UNFORMATTED            ACCESS:STREAM              
 ACTION:READWRITE           

 END OF OC OPTIONS

start timestep kper="1" kstp="1" mode="normal"


 BEGIN READING OUTPUT CONTROL FOR STRESS PERIOD 1
      ALL TIME STEPS WILL BE SAVED
      ALL TIME STEPS WILL BE SAVED
      THE LAST TIME STEP WILL BE PRINTED

 END READING OUTPUT CONTROL FOR STRESS PERIOD 1
 --------------------------------------------------------------------
  DRN NO.    LAYER    ROW     COL      DRAIN EL.       CONDUCTANCE   
 --------------------------------------------------------------------
     1         1      16      40     664.425293       0.100000000    
     2         1      28       5     667.757690       7.500000000E-02
     3         1      31      10     751.700745       0.100000000    
     4         1       9      10     621.000000       0.100000000    
     5         1      30      42     856.928406       0.100000000    
     6         1      12      15     712.910828       0.100000000    
     7         1      26      26     751.973328       2.500000000E-02
     8         1      26      35     810.182068       2.500000000E-02
     9         1      23      29     767.000000       2.500000000E-02
     10        1      15      25     653.000000       5.000000000E-02
     11        1      27       8     681.000000       5.000000000E-02
     12        1      19      13     719.412598       0.100000000    
     13        1      16      26     669.289551       5.000000000E-02
     14        1      27      26     757.380005       2.500000000E-02
     15        1      19      31     716.213745       5.000000000E-02
     16        1      28       9     724.861938       7.500000000E-02
     17        1      30      28     820.360535       5.000000000E-02
     18        1      20       5     632.507568       0.100000000    
     19        1      31      14     825.285584       0.100000000    
     20        1      34      16     880.235474       0.100000000    
     21        1      11      23     640.039429       0.100000000    
     22        1      26      21     801.887451       5.000000000E-02
     23        1      16      12     673.573486       0.100000000    
     24        1      27      21     806.006592       5.000000000E-02
     25        1      18      40     739.135681       0.100000000    
     26        1      30      14     822.059326       0.100000000    
     27        1      30      41     876.212463       0.100000000    
     28        1      26       7     686.208923       5.000000000E-02
     29        1      11      18     640.265808       0.100000000    
     30        1      23      28     749.396667       2.500000000E-02
     31        1      15      24     659.000000       7.500000000E-02
     32        1      27       7     669.000000       5.000000000E-02
     33        1      30       9     731.490967       0.100000000    
     34        1      22      14     755.018311       5.000000000E-02
     35        1      22      41     734.254578       5.000000000E-02
     36        1      11      13     657.692261       0.100000000    
     37        1      34      15     829.692871       0.100000000    
     38        1      26      11     747.182861       5.000000000E-02
     39        1      11      22     639.737000       0.100000000    
     40        1      25      42     763.316101       5.000000000E-02
     41        1      17      38     727.000000       5.000000000E-02
     42        1      18      21     735.000000       0.100000000    
     43        1      29      21     830.456970       0.100000000    
     44        1      18      30     704.815735       5.000000000E-02
     45        1      18      39     759.341125       7.500000000E-02
     46        1      30      13     801.103088       0.100000000    
     47        1      22      27     751.606689       2.500000000E-02
     48        1      29       7     684.250000       0.100000000    
     49        1      29      16     894.805725       0.100000000    
     50        1      10      12     647.553711       0.100000000    
     51        1      18      25     711.216003       5.000000000E-02
     52        1      29      25     789.973999       5.000000000E-02
     53        1      10      21     642.199951       0.100000000    
     54        1      30       8     713.715759       0.100000000    
     55        1      26      10     723.000000       5.000000000E-02
     56        1      25      32     787.000000       2.500000000E-02
     57        1      17      28     685.358154       5.000000000E-02
     58        1      17      37     723.000000       5.000000000E-02
     59        1      29      11     749.000000       0.100000000    
     60        1      29      20     827.887085       0.100000000    
     61        1      18      29     703.000000       5.000000000E-02
     62        1      29      29     813.000000       5.000000000E-02
     63        1      18      38     763.000000       5.000000000E-02
     64        1      30      12     790.837036       0.100000000    
     65        1      28      42     800.190430       7.500000000E-02
     66        1      21      21     764.746460       7.500000000E-02
     67        1      24      26     747.265503       2.500000000E-02
     68        1      33      13     795.292908       0.100000000    
     69        1      25       9     703.389221       5.000000000E-02
     70        1      17      14     699.972656       0.100000000    
     71        1      25      27     751.206726       2.500000000E-02
     72        1      17      41     670.971924       0.100000000    
     73        1      29       6     683.436401       0.100000000    
     74        1      10      11     631.000000       0.100000000    
     75        1      18      24     707.047913       7.500000000E-02
     76        1      29      24     788.048523       7.500000000E-02
     77        1      20      33     753.950684       5.000000000E-02
     78        1      31      42     897.000000       0.100000000    
     79        1      20      42     691.060974       0.100000000    
     80        1      21      25     729.355896       3.750000000E-02
     81        1      13      21     676.025818       0.100000000    
     82        1      24      21     785.079102       5.000000000E-02
     83        1      24      30     777.605591       2.500000000E-02
     84        1      32      43     977.628906       0.100000000    
     85        1      21      43     696.250610       7.500000000E-02
     86        1      25       4     646.068176       5.000000000E-02
     87        1      17      27     677.467896       5.000000000E-02
     88        1      17      36     727.755371       5.000000000E-02
     89        1      29      10     747.381287       0.100000000    
     90        1      20      28     722.501770       5.000000000E-02
     91        1      31      28     834.707642       5.000000000E-02
     92        1      32      11     748.739685       0.100000000    
     93        1      33      12     770.996887       0.100000000    
     94        1      24      43     755.191528       5.000000000E-02
     95        1      25       8     730.048218       5.000000000E-02
     96        1      14      17     733.000000       0.100000000    
     97        1      17      13     674.576294       0.100000000    
     98        1      25      26     749.000000       2.500000000E-02
     99        1      18       5     619.000000       0.100000000    
    100        1      16      35     700.123718       5.000000000E-02
    101        1      10      10     625.228210       0.100000000    
    102        1      19      40     739.898926       0.100000000    
    103        1      20      14     726.262695       0.100000000    
    104        1      28      27     784.644775       3.750000000E-02
    105        1      12      19     664.409119       0.100000000    
    106        1      20      41     710.703613       0.100000000    
    107        1      31      41     928.631897       0.100000000    
    108        1      21       6     649.156921       7.500000000E-02
    109        1      32      15     864.753113       0.100000000    
    110        1      24      11     720.937134       5.000000000E-02
    111        1      13      11     649.622681       0.100000000    
    112        1      24      29     770.881042       2.500000000E-02
    113        1      25       3     658.622559       5.000000000E-02
    114        1      14      12     654.362976       0.100000000    
    115        1      16      21     701.000000       0.100000000    
    116        1      16      39     656.333984       7.500000000E-02
    117        1      20       9     713.882874       0.100000000    
    118        1      31       9     715.075012       0.100000000    
    119        1      28      31     798.284851       3.750000000E-02
    120        1      12      14     695.226746       0.100000000    
    121        1      20      27     719.390381       5.000000000E-02
    122        1      12      23     649.025757       0.100000000    
    123        1      21       1     623.164368       7.500000000E-02
    124        1      32      10     761.048096       0.100000000    
    125        1      13      15     719.318176       0.100000000    
    126        1      25       7     723.000000       5.000000000E-02
    127        1      16      25     671.359314       5.000000000E-02
    128        1      19      21     744.752686       0.100000000    
    129        1      19      30     711.774414       5.000000000E-02
    130        1      31      13     783.785645       0.100000000    
    131        1      28      26     777.023315       3.750000000E-02
    132        1      12      18     674.142456       0.100000000    
    133        1      21      14     742.009399       7.500000000E-02
    134        1      32      14     842.021179       0.100000000    
    135        1      35      16     866.598755       0.100000000    
    136        1      23      32     773.845886       2.500000000E-02
    137        1      23      41     766.308533       5.000000000E-02
    138        1      16      38     659.501221       5.000000000E-02
    139        1      19      34     767.407471       5.000000000E-02
    140        1      19      43     669.130920       0.100000000    
    141        1      20       8     713.000000       0.100000000    
    142        1      28      21     820.078857       7.500000000E-02
    143        1      12      13     665.000000       0.100000000    
    144        1      20      26     732.101196       5.000000000E-02
    145        1      12      22     650.594849       0.100000000    
    146        1      26      42     764.618408       5.000000000E-02
    147        1      23      27     754.102539       2.500000000E-02
    148        1      27       6     665.000000       5.000000000E-02
    149        1      16      15     734.307800       0.100000000    
    150        1      16      24     674.927490       7.500000000E-02
    151        1      19      29     715.646667       5.000000000E-02
    152        1      19      38     779.852234       5.000000000E-02
    153        1      31      12     785.690552       0.100000000    
    154        1      34      14     818.416321       0.100000000    
    155        1      23      13     746.969238       5.000000000E-02
    156        1      35      15     851.904480       0.100000000    
    157        1      23      31     771.000000       2.500000000E-02
    158        1      23      40     786.226440       5.000000000E-02
    159        1      19      24     717.431580       7.500000000E-02
    160        1      30      30     820.384338       5.000000000E-02
    161        1      22      26     733.000000       2.500000000E-02
    162        1      26       5     652.594971       5.000000000E-02
    163        1      23      26     735.841125       2.500000000E-02
    164        1      27       5     656.898315       5.000000000E-02
    165        1      16      14     700.552917       0.100000000    
    166        1       8      10     621.000000       0.100000000    
    167        1      18      42     668.327637       0.100000000    
    168        1      29      42     825.719421       0.100000000    
    169        1      30      16     895.793701       0.100000000    
    170        1      22      21     775.388306       5.000000000E-02
    171        1      11      11     638.523010       0.100000000    
    172        1      26       9     696.774414       5.000000000E-02
    173        1      26      27     761.313599       2.500000000E-02
    174        1      23       3     638.928467       5.000000000E-02
    175        1      26      36     817.326294       2.500000000E-02
    176        1      23      12     747.841370       5.000000000E-02
    177        1       4       8     609.000000       0.100000000    
    178        1      23      21     783.612732       5.000000000E-02
    179        1      15      26     652.210999       5.000000000E-02
    180        1      18      28     689.000000       5.000000000E-02
    181        1      29      28     802.066956       5.000000000E-02
    182        1      19       5     621.612610       0.100000000    
    183        1      18      37     755.992004       5.000000000E-02
    184        1      30      11     754.024292       0.100000000    
    185        1      30      20     845.000000       0.100000000    
    186        1      22      16     771.836731       5.000000000E-02
    187        1      30      29     817.342163       5.000000000E-02
    188        1      22      25     744.070801       2.500000000E-02
    189        1      22      43     712.632324       5.000000000E-02
    190        1      26       4     647.964111       5.000000000E-02
    191        1      11      15     705.692566       0.100000000    
    192        1      34      17     919.000000       0.100000000    
    193        1      14      26     649.000000       5.000000000E-02
    194        1      15      12     656.067810       0.100000000    
    195        1      17      40     714.186401       0.100000000    
    196        1      29      23     814.948242       0.100000000    
    197        1      29      32     815.008118       5.000000000E-02
    198        1      18      41     694.550537       0.100000000    
    199        1      22       2     628.716187       5.000000000E-02
    200        1      30      15     844.564331       0.100000000    
    201        1      30      24     823.162659       7.500000000E-02
    202        1      11      10     638.891541       0.100000000    
    203        1      32      42     948.530151       0.100000000    
    204        1      26       8     704.677612       5.000000000E-02
    205        1      21      42     699.917541       7.500000000E-02
    206        1      11      19     633.417664       0.100000000    
    207        1      23       2     641.058716       5.000000000E-02
    208        1      14      21     685.526062       0.100000000    
    209        1      25      21     790.255249       5.000000000E-02
    210        1      17      26     679.063110       5.000000000E-02
    211        1      29       9     732.867737       0.100000000    
    212        1      18      36     757.916321       5.000000000E-02
    213        1      30      10     739.894409       0.100000000    
    214        1      22      15     753.000000       5.000000000E-02
    215        1      11      14     689.548767       0.100000000    
    216        1      33      11     792.457886       0.100000000    
    217        1      24      42     765.125793       5.000000000E-02
    218        1      14      16     742.223267       0.100000000    
    219        1      14      25     645.768433       5.000000000E-02
    220        1      17      21     716.703674       0.100000000    
    221        1      17      39     724.373474       7.500000000E-02
    222        1      18      13     681.000000       0.100000000    
    223        1      29      31     813.953308       5.000000000E-02
    224        1      22       1     623.307007       5.000000000E-02
    225        1      20      40     750.590393       0.100000000    
    226        1      13      19     694.525146       0.100000000    
    227        1      21      41     717.436401       7.500000000E-02
    228        1      33      15     859.099915       0.100000000    
    229        1      25      11     734.870117       5.000000000E-02
    230        1      29       8     689.267151       0.100000000    
    231        1      10      13     659.000000       0.100000000    
    232        1      10      22     645.657410       0.100000000    
    233        1      28      30     791.774902       3.750000000E-02
    234        1      21       9     705.000000       7.500000000E-02
    235        1      13      14     703.598694       0.100000000    
    236        1      24      32     779.000000       2.500000000E-02
    237        1      29      12     783.462158       0.100000000    
    238        1      27      42     776.587158       5.000000000E-02
    239        1      28      25     787.719177       3.750000000E-02
    240        1      20      21     756.152039       0.100000000    
    241        1      20      30     728.150818       5.000000000E-02
    242        1      20      39     781.251587       7.500000000E-02
    243        1      32      13     839.000000       0.100000000    
    244        1      13      18     699.781677       0.100000000    
    245        1      24      27     745.468201       2.500000000E-02
    246        1      33      14     841.000000       0.100000000    
    247        1      25      10     701.000000       5.000000000E-02
    248        1      17      24     687.921814       7.500000000E-02
    249        1      19      33     749.000000       5.000000000E-02
    250        1      19      42     683.764893       0.100000000    
    251        1      28      29     790.403015       3.750000000E-02
    252        1      20      34     768.158813       5.000000000E-02
    253        1      31      43     936.538696       0.100000000    
    254        1      21       8     701.690857       7.500000000E-02
    255        1      20      43     683.379272       0.100000000    
    256        1      13      13     681.892517       0.100000000    
    257        1      21      26     736.373535       3.750000000E-02
    258        1       5       9     611.000000       0.100000000    
    259        1      13      22     664.053467       0.100000000    
    260        1      24      31     778.648071       2.500000000E-02
    261        1      16      41     661.000000       0.100000000    
    262        1      28       6     682.175537       7.500000000E-02
    263        1      31      11     780.063843       0.100000000    
    264        1       9      11     625.756958       0.100000000    
    265        1      31      20     858.843811       0.100000000    
    266        1      20      29     728.224976       5.000000000E-02
    267        1      32      12     791.866577       0.100000000    
    268        1      13      17     734.181946       0.100000000    
    269        1      17       5     617.000000       0.100000000    
    270        1      15      35     653.000000       5.000000000E-02
    271        1      27       9     711.710083       5.000000000E-02
    272        1      19      14     723.592407       0.100000000    
    273        1      16      27     677.849304       5.000000000E-02
    274        1      27      27     754.120056       2.500000000E-02
    275        1      19      23     730.933899       0.100000000    
    276        1      27      36     821.547119       2.500000000E-02
    277        1      19      32     723.000000       5.000000000E-02
    278        1      28      10     738.259399       7.500000000E-02
    279        1      19      41     698.138184       0.100000000    
    280        1      20       6     641.173523       0.100000000    
    281        1      28      28     770.508850       3.750000000E-02
    282        1      12      11     637.000000       0.100000000    
    283        1      21       7     671.091919       7.500000000E-02
    284        1      24       3     639.562622       5.000000000E-02
    285        1      24      12     737.357056       5.000000000E-02
    286        1      13      12     651.722290       0.100000000    
    287        1       5       8     609.000000       0.100000000    
    288        1      15      21     704.045105       0.100000000    
    289        1      23      43     727.403503       5.000000000E-02
    290        1      16      13     675.230469       0.100000000    
 --------------------------------------------------------------------


 --------------------------------------------------------------------
  GHB NO.    LAYER    ROW     COL        STAGE         CONDUCTANCE   
 --------------------------------------------------------------------
     1         1      32      41     910.884155       5.000000000E-06
     2         2      32      41     910.884155       5.000000000E-07
     3         3      32      41     910.884155       5.000000000E-07
     4         4      32      41     910.884155       5.000000000E-08
     5         5      32      41     910.884155       5.000000000E-08
     6         6      32      41     910.884155       5.000000000E-09
     7         1      32      42     887.530151       5.000000000E-06
     8         2      32      42     887.530151       5.000000000E-07
     9         3      32      42     887.530151       5.000000000E-07
     10        4      32      42     887.530151       5.000000000E-08
     11        5      32      42     887.530151       5.000000000E-08
     12        6      32      42     887.530151       5.000000000E-09
     13        1      32      43     916.628906       5.000000000E-06
     14        2      32      43     916.628906       5.000000000E-07
     15        3      32      43     916.628906       5.000000000E-07
     16        4      32      43     916.628906       5.000000000E-08
     17        5      32      43     916.628906       5.000000000E-08
     18        6      32      43     916.628906       5.000000000E-09
     19        1      32      44     921.261108       5.000000000E-06
     20        2      32      44     921.261108       5.000000000E-07
     21        3      32      44     921.261108       5.000000000E-07
     22        4      32      44     921.261108       5.000000000E-08
     23        5      32      44     921.261108       5.000000000E-08
     24        6      32      44     921.261108       5.000000000E-09
     25        2      33      30     852.584717       5.000000000E-07
     26        3      33      30     852.584717       5.000000000E-07
     27        4      33      30     852.584717       5.000000000E-08
     28        5      33      30     852.584717       5.000000000E-08
     29        6      33      30     852.584717       5.000000000E-09
     30        2      33      31     851.783691       5.000000000E-07
     31        3      33      31     851.783691       5.000000000E-07
     32        4      33      31     851.783691       5.000000000E-08
     33        5      33      31     851.783691       5.000000000E-08
     34        6      33      31     851.783691       5.000000000E-09
     35        2      33      32     863.530151       5.000000000E-07
     36        3      33      32     863.530151       5.000000000E-07
     37        4      33      32     863.530151       5.000000000E-08
     38        5      33      32     863.530151       5.000000000E-08
     39        6      33      32     863.530151       5.000000000E-09
     40        2      33      33     870.174622       5.000000000E-07
     41        3      33      33     870.174622       5.000000000E-07
     42        4      33      33     870.174622       5.000000000E-08
     43        5      33      33     870.174622       5.000000000E-08
     44        6      33      33     870.174622       5.000000000E-09
     45        2      33      34     863.515076       5.000000000E-07
     46        3      33      34     863.515076       5.000000000E-07
     47        4      33      34     863.515076       5.000000000E-08
     48        5      33      34     863.515076       5.000000000E-08
     49        6      33      34     863.515076       5.000000000E-09
     50        1      33      35     870.665039       5.000000000E-06
     51        2      33      35     870.665039       5.000000000E-07
     52        3      33      35     870.665039       5.000000000E-07
     53        4      33      35     870.665039       5.000000000E-08
     54        5      33      35     870.665039       5.000000000E-08
     55        6      33      35     870.665039       5.000000000E-09
     56        1      33      36     883.512085       5.000000000E-06
     57        2      33      36     883.512085       5.000000000E-07
     58        3      33      36     883.512085       5.000000000E-07
     59        4      33      36     883.512085       5.000000000E-08
     60        5      33      36     883.512085       5.000000000E-08
     61        6      33      36     883.512085       5.000000000E-09
     62        1      33      37     903.268066       5.000000000E-06
     63        2      33      37     903.268066       5.000000000E-07
     64        3      33      37     903.268066       5.000000000E-07
     65        4      33      37     903.268066       5.000000000E-08
     66        5      33      37     903.268066       5.000000000E-08
     67        6      33      37     903.268066       5.000000000E-09
     68        1      33      38     912.631287       5.000000000E-06
     69        2      33      38     912.631287       5.000000000E-07
     70        3      33      38     912.631287       5.000000000E-07
     71        4      33      38     912.631287       5.000000000E-08
     72        5      33      38     912.631287       5.000000000E-08
     73        6      33      38     912.631287       5.000000000E-09
     74        1      33      39     915.532654       5.000000000E-06
     75        2      33      39     915.532654       5.000000000E-07
     76        3      33      39     915.532654       5.000000000E-07
     77        4      33      39     915.532654       5.000000000E-08
     78        5      33      39     915.532654       5.000000000E-08
     79        6      33      39     915.532654       5.000000000E-09
     80        6      33      40     919.455688       5.000000000E-09
     81        6      33      41     924.066589       5.000000000E-09
     82        6      33      42     927.176331       5.000000000E-09
     83        1      34      21     872.403137       5.000000000E-06
     84        2      34      21     872.403137       5.000000000E-07
     85        3      34      21     872.403137       5.000000000E-07
     86        4      34      21     872.403137       5.000000000E-08
     87        5      34      21     872.403137       5.000000000E-08
     88        6      34      21     872.403137       5.000000000E-09
     89        1      34      22     876.533264       5.000000000E-06
     90        2      34      22     876.533264       5.000000000E-07
     91        3      34      22     876.533264       5.000000000E-07
     92        4      34      22     876.533264       5.000000000E-08
     93        5      34      22     876.533264       5.000000000E-08
     94        6      34      22     876.533264       5.000000000E-09
     95        1      34      23     880.000000       5.000000000E-06
     96        2      34      23     880.000000       5.000000000E-07
     97        3      34      23     880.000000       5.000000000E-07
     98        4      34      23     880.000000       5.000000000E-08
     99        5      34      23     880.000000       5.000000000E-08
    100        6      34      23     880.000000       5.000000000E-09
    101        1      34      24     883.103760       5.000000000E-06
    102        2      34      24     883.103760       5.000000000E-07
    103        3      34      24     883.103760       5.000000000E-07
    104        4      34      24     883.103760       5.000000000E-08
    105        5      34      24     883.103760       5.000000000E-08
    106        6      34      24     883.103760       5.000000000E-09
    107        1      34      25     885.796326       5.000000000E-06
    108        2      34      25     885.796326       5.000000000E-07
    109        3      34      25     885.796326       5.000000000E-07
    110        4      34      25     885.796326       5.000000000E-08
    111        5      34      25     885.796326       5.000000000E-08
    112        6      34      25     885.796326       5.000000000E-09
    113        1      34      26     887.799866       5.000000000E-06
    114        2      34      26     887.799866       5.000000000E-07
    115        3      34      26     887.799866       5.000000000E-07
    116        4      34      26     887.799866       5.000000000E-08
    117        5      34      26     887.799866       5.000000000E-08
    118        6      34      26     887.799866       5.000000000E-09
    119        1      34      27     890.575684       5.000000000E-06
    120        2      34      27     890.575684       5.000000000E-07
    121        3      34      27     890.575684       5.000000000E-07
    122        4      34      27     890.575684       5.000000000E-08
    123        5      34      27     890.575684       5.000000000E-08
    124        6      34      27     890.575684       5.000000000E-09
    125        1      34      28     892.385010       5.000000000E-06
    126        2      34      28     892.385010       5.000000000E-07
    127        3      34      28     892.385010       5.000000000E-07
    128        4      34      28     892.385010       5.000000000E-08
    129        5      34      28     892.385010       5.000000000E-08
    130        6      34      28     892.385010       5.000000000E-09
    131        1      34      29     893.885742       5.000000000E-06
    132        2      34      29     893.885742       5.000000000E-07
    133        3      34      29     893.885742       5.000000000E-07
    134        4      34      29     893.885742       5.000000000E-08
    135        5      34      29     893.885742       5.000000000E-08
    136        6      34      29     893.885742       5.000000000E-09
    137        6      34      30     897.087402       5.000000000E-09
    138        6      34      31     898.793274       5.000000000E-09
    139        6      34      32     901.228821       5.000000000E-09
    140        6      34      33     902.821716       5.000000000E-09
    141        1      35      19     867.467041       5.000000000E-06
    142        2      35      19     867.467041       5.000000000E-07
    143        3      35      19     867.467041       5.000000000E-07
    144        4      35      19     867.467041       5.000000000E-08
    145        5      35      19     867.467041       5.000000000E-08
    146        6      35      19     867.467041       5.000000000E-09
    147        6      35      20     870.735718       5.000000000E-09
    148        6      35      21     873.938354       5.000000000E-09
    149        6      35      22     879.031433       5.000000000E-09
 --------------------------------------------------------------------


 ---------------------------------------------------
  RCH NO.    LAYER    ROW     COL       RECHARGE    
 ---------------------------------------------------
     1         1       2       8     2.351890760E-07
     2         1       3       8     4.650264930E-07
     3         1       4       7     2.375201070E-08
     4         1       4       8     7.189785290E-07
     5         1       4      15     3.707624230E-07
     6         1       4      16     1.410711870E-07
     7         1       5       7     5.318014400E-09
     8         1       5       8     1.172054930E-06
     9         1       5       9     5.318034500E-07
     10        1       5      10     5.772466000E-08
     11        1       5      15     4.024826930E-07
     12        1       5      16     6.164677820E-07
     13        1       6       8     8.184254690E-07
     14        1       6       9     1.273148150E-06
     15        1       6      10     4.456384040E-07
     16        1       6      13     1.909307480E-07
     17        1       6      14     9.713063690E-08
     18        1       6      15     6.461110890E-08
     19        1       6      16     7.893685440E-07
     20        1       7       8     4.484060140E-07
     21        1       7       9     1.273148150E-06
     22        1       7      10     2.491453490E-07
     23        1       7      13     7.666149960E-07
     24        1       7      14     1.120044950E-07
     25        1       7      15     1.434984090E-07
     26        1       7      16     8.734277790E-07
     27        1       7      17     9.288929210E-08
     28        1       8       8     2.342454920E-07
     29        1       8       9     1.231068300E-06
     30        1       8      10     2.353430000E-08
     31        1       8      13     1.131324600E-06
     32        1       8      14     1.273148150E-06
     33        1       8      15     1.095302530E-06
     34        1       8      16     8.758358670E-07
     35        1       8      17     1.008172160E-06
     36        1       8      18     6.979834990E-08
     37        1       9       8     3.897049840E-07
     38        1       9       9     1.038372910E-06
     39        1       9      12     1.165187720E-07
     40        1       9      13     1.270019610E-06
     41        1       9      14     5.860835080E-07
     42        1       9      15     8.528505990E-07
     43        1       9      16     1.273148150E-06
     44        1       9      17     1.273148150E-06
     45        1       9      18     3.034718830E-07
     46        1      10       8     8.399515440E-07
     47        1      10       9     9.076079950E-07
     48        1      10      10     1.201127710E-08
     49        1      10      12     2.676620210E-07
     50        1      10      13     1.059754590E-06
     51        1      10      14     8.032808860E-07
     52        1      10      15     5.967742820E-07
     53        1      10      16     1.266583900E-06
     54        1      10      17     1.273148150E-06
     55        1      10      18     1.486109860E-07
     56        1      10      22     9.728712970E-10
     57        1      11       8     1.043129600E-06
     58        1      11       9     1.135492450E-06
     59        1      11      10     1.283721830E-07
     60        1      11      12     9.559516680E-07
     61        1      11      13     1.020125570E-06
     62        1      11      14     5.684659770E-07
     63        1      11      15     3.590779240E-07
     64        1      11      16     5.118075900E-07
     65        1      11      17     1.273148150E-06
     66        1      11      18     1.107078300E-06
     67        1      11      19     8.251771900E-07
     68        1      11      20     7.519630070E-07
     69        1      11      21     4.576901190E-07
     70        1      11      22     2.740668250E-07
     71        1      11      23     2.756642100E-07
     72        1      12       8     1.020002950E-06
     73        1      12       9     1.098099670E-06
     74        1      12      10     7.714393010E-08
     75        1      12      11     5.506989820E-07
     76        1      12      12     7.019867180E-07
     77        1      12      13     1.273148150E-06
     78        1      12      14     8.830444490E-07
     79        1      12      15     1.565013810E-07
     80        1      12      16     9.885033580E-09
     81        1      12      17     1.266573360E-06
     82        1      12      18     1.242117400E-06
     83        1      12      19     1.156099360E-06
     84        1      12      20     1.191613260E-06
     85        1      12      21     6.142258540E-07
     86        1      12      22     3.968377170E-07
     87        1      12      23     8.535091220E-07
     88        1      12      24     2.074737060E-07
     89        1      12      25     2.690469240E-07
     90        1      13       8     1.096021100E-06
     91        1      13       9     1.273148150E-06
     92        1      13      10     2.232698160E-07
     93        1      13      11     6.949787630E-07
     94        1      13      12     3.054441490E-07
     95        1      13      13     1.272814960E-06
     96        1      13      14     1.240213000E-06
     97        1      13      15     5.918216690E-07
     98        1      13      16     2.002955760E-07
     99        1      13      17     1.273148150E-06
    100        1      13      18     5.695489380E-07
    101        1      13      19     7.305515480E-07
    102        1      13      20     4.071683250E-07
    103        1      13      21     6.396675950E-07
    104        1      13      22     1.080271250E-06
    105        1      13      23     9.297020510E-07
    106        1      13      24     1.133747690E-06
    107        1      13      25     9.806535750E-07
    108        1      13      26     8.178405440E-08
    109        1      14       7     3.673622900E-08
    110        1      14       8     1.238518390E-06
    111        1      14       9     1.265291350E-06
    112        1      14      10     8.507030570E-08
    113        1      14      11     4.122978470E-07
    114        1      14      12     7.893621830E-07
    115        1      14      13     1.264097970E-06
    116        1      14      14     7.923568420E-07
    117        1      14      15     1.708983680E-08
    118        1      14      16     1.569472710E-07
    119        1      14      17     6.089454710E-07
    120        1      14      18     8.590325470E-07
    121        1      14      19     2.746907680E-08
    122        1      14      20     4.433005680E-08
    123        1      14      21     8.759564940E-07
    124        1      14      22     1.027756160E-06
    125        1      14      23     5.449407980E-07
    126        1      14      24     6.604559830E-07
    127        1      14      25     8.109248280E-07
    128        1      14      26     6.185347100E-07
    129        1      14      27     2.080035520E-07
    130        1      14      28     1.558178610E-08
    131        1      15       7     3.596580090E-07
    132        1      15       8     1.261271970E-06
    133        1      15       9     9.510096310E-07
    134        1      15      10     6.875720450E-07
    135        1      15      11     4.608617060E-07
    136        1      15      12     1.161895830E-06
    137        1      15      13     3.803738580E-07
    138        1      15      14     1.088274470E-08
    139        1      15      18     3.359630720E-07
    140        1      15      19     6.225378300E-07
    141        1      15      20     1.913226270E-07
    142        1      15      21     1.038519310E-06
    143        1      15      22     5.592472850E-07
    144        1      15      23     5.688492240E-07
    145        1      15      24     7.894186560E-07
    146        1      15      25     2.879305070E-07
    147        1      15      26     8.768366640E-07
    148        1      15      27     4.908784940E-07
    149        1      15      28     6.205869840E-07
    150        1      15      29     6.111175440E-07
    151        1      15      30     6.017230380E-07
    152        1      15      31     7.829250970E-07
    153        1      15      32     9.516430540E-07
    154        1      15      33     9.873177210E-07
    155        1      15      34     9.611575900E-07
    156        1      15      35     8.568958860E-07
    157        1      15      36     6.263726130E-07
    158        1      15      37     2.548995890E-07
    159        1      15      38     5.354982290E-09
    160        1      16       6     1.468356790E-07
    161        1      16       7     1.096284330E-06
    162        1      16       8     4.348642010E-07
    163        1      16       9     5.157664890E-07
    164        1      16      10     9.583104590E-07
    165        1      16      11     4.097493300E-08
    166        1      16      12     5.619781200E-07
    167        1      16      13     1.130579310E-06
    168        1      16      14     6.994142520E-07
    169        1      16      15     7.133909390E-07
    170        1      16      19     6.938827620E-07
    171        1      16      20     1.320750830E-07
    172        1      16      21     8.591656560E-07
    173        1      16      22     7.018952790E-07
    174        1      16      23     5.532650660E-07
    175        1      16      24     9.894106420E-07
    176        1      16      25     1.247627340E-06
    177        1      16      26     1.001237150E-06
    178        1      16      27     8.851296920E-07
    179        1      16      28     5.083299930E-07
    180        1      16      29     2.514361300E-07
    181        1      16      30     6.516774550E-07
    182        1      16      31     1.204404110E-06
    183        1      16      32     1.245995780E-06
    184        1      16      33     1.017441890E-06
    185        1      16      34     9.165147530E-07
    186        1      16      35     8.958662130E-07
    187        1      16      36     9.968783080E-07
    188        1      16      37     1.181533460E-06
    189        1      16      38     1.154945720E-06
    190        1      16      39     8.722232370E-07
    191        1      16      40     1.023846470E-06
    192        1      16      41     4.195518980E-07
    193        1      17       6     6.846323490E-07
    194        1      17       7     1.273148150E-06
    195        1      17       8     4.448226710E-07
    196        1      17       9     3.037173830E-07
    197        1      17      10     1.222854050E-06
    198        1      17      11     1.083268620E-08
    199        1      17      12     3.825609620E-07
    200        1      17      13     1.273148150E-06
    201        1      17      14     1.273148150E-06
    202        1      17      15     1.265121580E-06
    203        1      17      16     3.221060330E-07
    204        1      17      19     7.895067940E-07
    205        1      17      20     4.677252490E-07
    206        1      17      21     4.029863800E-07
    207        1      17      22     5.343074880E-07
    208        1      17      23     6.024034080E-07
    209        1      17      24     4.012560590E-07
    210        1      17      25     4.476044710E-07
    211        1      17      26     1.212233560E-06
    212        1      17      27     1.004790520E-06
    213        1      17      28     6.013264850E-07
    214        1      17      29     3.373883920E-07
    215        1      17      30     3.205963410E-07
    216        1      17      31     7.101536210E-07
    217        1      17      32     7.455848540E-07
    218        1      17      33     5.330586110E-07
    219        1      17      34     9.285293880E-08
    220        1      17      35     1.421683190E-07
    221        1      17      36     1.971400230E-07
    222        1      17      37     5.609807990E-07
    223        1      17      38     8.520873080E-07
    224        1      17      39     1.270705170E-06
    225        1      17      40     1.273148150E-06
    226        1      17      41     1.117273110E-06
    227        1      17      42     9.806648540E-08
    228        1      18       6     7.244683850E-07
    229        1      18       7     1.268984920E-06
    230        1      18       8     1.240053200E-06
    231        1      18       9     1.078537290E-06
    232        1      18      10     1.005696660E-06
[...]
       1.0000E+30  1.0000E+30  1.0000E+30  1.0000E+30  1.0000E+30  1.0000E+30  1.0000E+30  1.0000E+30  1.0000E+30  1.0000E+30
       1.0000E+30  1.0000E+30  1.0000E+30  1.0000E+30  1.0000E+30  1.0000E+30  1.0000E+30  1.0000E+30  1.0000E+30  1.0000E+30
       1.0000E+30  1.0000E+30  1.0000E+30  1.0000E+30
   5   1.0000E+30  1.0000E+30  1.0000E+30  1.0000E+30  1.0000E+30  1.0000E+30   4076.       4713.       6021.       8328.    
       1.2143E+04  1.8194E+04  2.4520E+04  2.8207E+04  2.9101E+04  2.8263E+04  1.0000E+30  1.0000E+30  1.0000E+30  1.0000E+30
       1.0000E+30  1.0000E+30  1.0000E+30  1.0000E+30  1.0000E+30  1.0000E+30  1.0000E+30  1.0000E+30  1.0000E+30  1.0000E+30
       1.0000E+30  1.0000E+30  1.0000E+30  1.0000E+30  1.0000E+30  1.0000E+30  1.0000E+30  1.0000E+30  1.0000E+30  1.0000E+30
       1.0000E+30  1.0000E+30  1.0000E+30  1.0000E+30
   6   1.0000E+30  1.0000E+30  1.0000E+30  1.0000E+30  1.0000E+30  1.0000E+30   4183.       5828.       8046.      1.1442E+04
       1.7754E+04  2.6597E+04  3.4265E+04  3.8355E+04  3.9150E+04  3.7085E+04  1.0000E+30  1.0000E+30  1.0000E+30  1.0000E+30
       1.0000E+30  1.0000E+30  1.0000E+30  1.0000E+30  1.0000E+30  1.0000E+30  1.0000E+30  1.0000E+30  1.0000E+30  1.0000E+30
       1.0000E+30  1.0000E+30  1.0000E+30  1.0000E+30  1.0000E+30  1.0000E+30  1.0000E+30  1.0000E+30  1.0000E+30  1.0000E+30
       1.0000E+30  1.0000E+30  1.0000E+30  1.0000E+30
   7   1.0000E+30  1.0000E+30  1.0000E+30  1.0000E+30  1.0000E+30  1.0000E+30  1.0000E+30   7969.      1.0505E+04  1.5912E+04
       2.5671E+04  3.7041E+04  4.6655E+04  5.3090E+04  5.5026E+04  4.8438E+04  4.6555E+04  1.0000E+30  1.0000E+30  1.0000E+30
       1.0000E+30  1.0000E+30  1.0000E+30  1.0000E+30  1.0000E+30  1.0000E+30  1.0000E+30  1.0000E+30  1.0000E+30  1.0000E+30
       1.0000E+30  1.0000E+30  1.0000E+30  1.0000E+30  1.0000E+30  1.0000E+30  1.0000E+30  1.0000E+30  1.0000E+30  1.0000E+30
       1.0000E+30  1.0000E+30  1.0000E+30  1.0000E+30
   8   1.0000E+30  1.0000E+30  1.0000E+30  1.0000E+30  1.0000E+30  1.0000E+30  1.0000E+30   9991.      1.3870E+04  2.2581E+04
       3.4574E+04  4.7496E+04  5.8946E+04  6.8519E+04  8.2164E+04  5.9719E+04  4.9610E+04  4.5826E+04  1.0000E+30  1.0000E+30
       1.0000E+30  1.0000E+30  1.0000E+30  1.0000E+30  1.0000E+30  1.0000E+30  1.0000E+30  1.0000E+30  1.0000E+30  1.0000E+30
       1.0000E+30  1.0000E+30  1.0000E+30  1.0000E+30  1.0000E+30  1.0000E+30  1.0000E+30  1.0000E+30  1.0000E+30  1.0000E+30
       1.0000E+30  1.0000E+30  1.0000E+30  1.0000E+30
   9   1.0000E+30  1.0000E+30  1.0000E+30  1.0000E+30  1.0000E+30  1.0000E+30  1.0000E+30  1.4414E+04  2.1767E+04  3.2330E+04
       4.4759E+04  5.7713E+04  6.8211E+04  7.3774E+04  7.4003E+04  6.1602E+04  5.2236E+04  4.6679E+04  1.0000E+30  1.0000E+30
       1.0000E+30  1.0000E+30  1.0000E+30  1.0000E+30  1.0000E+30  1.0000E+30  1.0000E+30  1.0000E+30  1.0000E+30  1.0000E+30
       1.0000E+30  1.0000E+30  1.0000E+30  1.0000E+30  1.0000E+30  1.0000E+30  1.0000E+30  1.0000E+30  1.0000E+30  1.0000E+30
       1.0000E+30  1.0000E+30  1.0000E+30  1.0000E+30
  10   1.0000E+30  1.0000E+30  1.0000E+30  1.0000E+30  1.0000E+30  1.0000E+30  3.6684E+04  2.9021E+04  3.5484E+04  4.5853E+04
       5.7537E+04  6.9542E+04  7.7728E+04  7.9429E+04  7.4213E+04  6.2956E+04  5.4589E+04  4.7805E+04  1.0000E+30  1.0000E+30
       1.6814E+04  1.5171E+04  1.3947E+04  1.0000E+30  1.0000E+30  1.0000E+30  1.0000E+30  1.0000E+30  1.0000E+30  1.0000E+30
       1.0000E+30  1.0000E+30  1.0000E+30  1.0000E+30  1.0000E+30  1.0000E+30  1.0000E+30  1.0000E+30  1.0000E+30  1.0000E+30
       1.0000E+30  1.0000E+30  1.0000E+30  1.0000E+30
  11   1.0000E+30  1.0000E+30  1.0000E+30  1.0000E+30  1.0000E+30  1.0000E+30  4.4779E+04  4.3879E+04  5.2549E+04  6.2837E+04
       7.3285E+04  8.3808E+04  8.9315E+04  8.7414E+04  7.8519E+04  6.6013E+04  5.6509E+04  4.6737E+04  3.6380E+04  2.7594E+04
       2.0166E+04  1.6232E+04  1.3918E+04  1.2749E+04  1.2417E+04  1.0000E+30  1.0000E+30  1.0000E+30  1.0000E+30  1.0000E+30
       1.0000E+30  1.0000E+30  1.0000E+30  1.0000E+30  1.0000E+30  1.0000E+30  1.0000E+30  1.0000E+30  1.0000E+30  1.0000E+30
       1.0000E+30  1.0000E+30  1.0000E+30  1.0000E+30
  12   1.0000E+30  1.0000E+30  1.0000E+30  1.0000E+30  1.0000E+30  1.0000E+30  5.9540E+04  6.2853E+04  7.3257E+04  8.3957E+04
       9.3251E+04  1.0185E+05  1.0424E+05  9.8820E+04  8.6439E+04  7.1654E+04  5.9757E+04  4.8998E+04  3.8611E+04  2.9604E+04
       2.2521E+04  1.7538E+04  1.4381E+04  1.2916E+04  1.2433E+04  1.2267E+04  1.0000E+30  1.0000E+30  1.0000E+30  1.0000E+30
       1.0000E+30  1.0000E+30  1.0000E+30  1.0000E+30  1.0000E+30  1.0000E+30  1.0000E+30  1.0000E+30  1.0000E+30  1.0000E+30
       1.0000E+30  1.0000E+30  1.0000E+30  1.0000E+30
  13   1.0000E+30  1.0000E+30  1.0000E+30  1.0000E+30  1.0000E+30  1.0000E+30  7.9992E+04  8.6330E+04  9.9182E+04  1.1133E+05
       1.2039E+05  1.2539E+05  1.2373E+05  1.1403E+05  9.7624E+04  7.9976E+04  6.5291E+04  5.2912E+04  4.1853E+04  3.2585E+04
       2.5345E+04  1.9701E+04  1.5712E+04  1.3669E+04  1.2894E+04  1.2592E+04  1.0000E+30  1.0000E+30  1.0000E+30  1.0000E+30
       1.0000E+30  1.0000E+30  1.0000E+30  1.0000E+30  1.0000E+30  1.0000E+30  1.0000E+30  1.0000E+30  1.0000E+30  1.0000E+30
       1.0000E+30  1.0000E+30  1.0000E+30  1.0000E+30
  14   1.0000E+30  1.0000E+30  1.0000E+30  1.0000E+30  1.0000E+30  1.0000E+30  1.0587E+05  1.1737E+05  1.3493E+05  1.4778E+05
       1.5497E+05  1.5570E+05  1.4846E+05  1.3345E+05  1.1308E+05  9.2283E+04  7.4226E+04  5.9148E+04  4.6545E+04  3.6369E+04
       2.8467E+04  2.2303E+04  1.7691E+04  1.4948E+04  1.3605E+04  1.2827E+04  1.2207E+04  1.1735E+04  1.1465E+04  1.0000E+30
       1.0000E+30  1.0000E+30  1.0000E+30   7782.       7725.       7679.      1.0000E+30  1.0000E+30  1.0000E+30  1.0000E+30
       1.0000E+30  1.0000E+30  1.0000E+30  1.0000E+30
  15   1.0000E+30  1.0000E+30  1.0000E+30  1.0000E+30  1.0000E+30  1.0000E+30  1.5005E+05  1.6868E+05  1.8534E+05  1.9601E+05
       1.9982E+05  1.9520E+05  1.8110E+05  1.5954E+05  1.3396E+05  1.0883E+05  8.6759E+04  6.8255E+04  5.3203E+04  4.1344E+04
       3.2222E+04  2.5158E+04  1.9850E+04  1.6511E+04  1.4733E+04  1.3601E+04  1.2685E+04  1.1928E+04  1.1266E+04  1.0615E+04
       1.0029E+04   9499.       9001.       8506.       8174.       7939.       7765.       7602.       7432.       7277.    
        7218.      1.0000E+30  1.0000E+30  1.0000E+30
  16   1.0000E+30  1.0000E+30  1.0000E+30  1.0000E+30  1.9882E+05  2.1064E+05  2.1612E+05  2.3745E+05  2.5075E+05  2.5648E+05
       2.5481E+05  2.4453E+05  2.2318E+05  1.9385E+05  1.6141E+05  1.3038E+05  1.0336E+05  8.0680E+04  6.2311E+04  4.7955E+04
       3.6975E+04  2.8615E+04  2.2359E+04  1.8368E+04  1.6180E+04  1.4746E+04  1.3586E+04  1.2663E+04  1.1894E+04  1.1218E+04
       1.0616E+04  1.0089E+04   9630.       9215.       8841.       8535.       8277.       8052.       7835.       7645.    
        7497.       7544.      1.0000E+30  1.0000E+30
  17   1.0000E+30  1.0000E+30  1.8222E+05  1.9529E+05  2.1544E+05  2.5093E+05  2.8982E+05  3.1881E+05  3.2846E+05  3.2754E+05
       3.1850E+05  3.0212E+05  2.7284E+05  2.3454E+05  1.9424E+05  1.5656E+05  1.2385E+05  9.6403E+04  7.4110E+04  5.6540E+04
       4.3028E+04  3.2970E+04  2.5569E+04  2.0802E+04  1.8136E+04  1.6376E+04  1.4946E+04  1.3785E+04  1.2833E+04  1.2030E+04
       1.1356E+04  1.0792E+04  1.0321E+04   9923.       9574.       9257.       8991.       8777.       8577.       8385.    
        8135.       8005.      1.0000E+30  1.0000E+30
  18   1.0000E+30  1.8115E+05  1.9261E+05  2.2188E+05  2.7213E+05  3.2632E+05  3.8102E+05  4.2078E+05  4.1887E+05  4.0708E+05
       3.8903E+05  3.6791E+05  3.2471E+05  2.7731E+05  2.2898E+05  1.8466E+05  1.4638E+05  1.1424E+05  8.8022E+04  6.7076E+04
       5.0649E+04  3.8506E+04  2.9815E+04  2.4171E+04  2.0941E+04  1.8751E+04  1.6948E+04  1.5491E+04  1.4314E+04  1.3340E+04
       1.2533E+04  1.1904E+04  1.1425E+04  1.1024E+04  1.0669E+04  1.0349E+04  1.0057E+04   9800.       9539.       9322.    
        9067.       8893.       9029.      1.0000E+30
  19   1.8207E+05  1.9337E+05  2.2606E+05  2.8066E+05  3.5520E+05  4.2101E+05  4.8801E+05  5.4311E+05  5.1881E+05  4.9104E+05
       4.6201E+05  4.3900E+05  3.7599E+05  3.1916E+05  2.6396E+05  2.1327E+05  1.6959E+05  1.3290E+05  1.0291E+05  7.8904E+04
       5.9972E+04  4.5595E+04  3.5265E+04  2.8541E+04  2.4639E+04  2.1948E+04  1.9658E+04  1.7797E+04  1.6335E+04  1.5181E+04
       1.4248E+04  1.3493E+04  1.2908E+04  1.2453E+04  1.2073E+04  1.1740E+04  1.1436E+04  1.1156E+04  1.0838E+04  1.0523E+04
       1.0259E+04  1.0003E+04   9743.       9210.    
  20   1.9475E+05  2.2378E+05  2.7907E+05  3.5328E+05  4.3792E+05  5.2396E+05  5.9918E+05  6.4883E+05  6.1207E+05  5.7191E+05
       5.2695E+05  4.7838E+05  4.1877E+05  3.5773E+05  2.9733E+05  2.4097E+05  1.9218E+05  1.5130E+05  1.1789E+05  9.1070E+04
       6.9971E+04  5.3594E+04  4.1432E+04  3.3601E+04  2.9005E+04  2.5740E+04  2.2916E+04  2.0589E+04  1.8757E+04  1.7342E+04
       1.6231E+04  1.5333E+04  1.4606E+04  1.4047E+04  1.3613E+04  1.3256E+04  1.2948E+04  1.2673E+04  1.2363E+04  1.2046E+04
       1.1845E+04  1.1581E+04  1.1333E+04  1.0000E+30
  21   2.1695E+05  2.6771E+05  3.4537E+05  4.3302E+05  5.2852E+05  6.2888E+05  7.2875E+05  7.4965E+05  6.9044E+05  6.3934E+05
       5.8478E+05  5.2217E+05  4.5644E+05  3.9038E+05  3.2544E+05  2.6447E+05  2.1132E+05  1.6690E+05  1.3076E+05  1.0168E+05
       7.8443E+04  6.0670E+04  4.7229E+04  3.8414E+04  3.3246E+04  2.9517E+04  2.6222E+04  2.3457E+04  2.1232E+04  1.9487E+04
       1.8137E+04  1.7084E+04  1.6252E+04  1.5608E+04  1.5127E+04  1.4766E+04  1.4486E+04  1.4263E+04  1.4034E+04  1.3791E+04
       1.3653E+04  1.3401E+04  1.2966E+04  1.0000E+30
  22   2.2955E+05  3.0730E+05  4.0310E+05  4.9557E+05  5.9777E+05  7.1053E+05  8.0501E+05  8.1239E+05  7.4201E+05  6.8658E+05
       6.3046E+05  5.5640E+05  4.8417E+05  4.1356E+05  3.4504E+05  2.8089E+05  2.2486E+05  1.7785E+05  1.3962E+05  1.0895E+05
       8.4451E+04  6.5614E+04  5.1344E+04  4.1908E+04  3.6399E+04  3.2420E+04  2.8856E+04  2.5749E+04  2.3187E+04  2.1163E+04
       1.9608E+04  1.8421E+04  1.7507E+04  1.6812E+04  1.6296E+04  1.5934E+04  1.5701E+04  1.5543E+04  1.5415E+04  1.5323E+04
       1.5230E+04  1.4965E+04  1.4147E+04  1.0000E+30
  23   1.0000E+30  3.4010E+05  4.5426E+05  5.4467E+05  6.5307E+05  7.8602E+05  8.6056E+05  8.5809E+05  7.8056E+05  7.2332E+05
       6.7146E+05  5.8486E+05  5.0674E+05  4.3210E+05  3.6051E+05  2.9379E+05  2.3549E+05  1.8649E+05  1.4662E+05  1.1467E+05
       8.9216E+04  6.9513E+04  5.4595E+04  4.4699E+04  3.8934E+04  3.4790E+04  3.1048E+04  2.7732E+04  2.4926E+04  2.2671E+04
       2.0928E+04  1.9603E+04  1.8600E+04  1.7854E+04  1.7316E+04  1.6945E+04  1.6741E+04  1.6626E+04  1.6571E+04  1.6619E+04
       1.6673E+04  1.6355E+04  1.4958E+04  1.0000E+30
  24   1.0000E+30  1.0000E+30  5.1130E+05  5.9112E+05  7.0594E+05  8.4528E+05  9.0897E+05  8.9887E+05  8.1597E+05  7.5784E+05
       7.1214E+05  6.1320E+05  5.2952E+05  4.5069E+05  3.7574E+05  3.0640E+05  2.4590E+05  1.9498E+05  1.5349E+05  1.2028E+05
       9.3905E+04  7.3386E+04  5.7829E+04  4.7506E+04  4.1502E+04  3.7209E+04  3.3314E+04  2.9817E+04  2.6795E+04  2.4316E+04
       2.2372E+04  2.0889E+04  1.9779E+04  1.8974E+04  1.8412E+04  1.8033E+04  1.7835E+04  1.7761E+04  1.7786E+04  1.8011E+04
       1.8346E+04  1.8178E+04  1.5499E+04  1.0000E+30
  25   1.0000E+30  1.0000E+30  5.3348E+05  6.3446E+05  7.5746E+05  8.9397E+05  9.4982E+05  9.3410E+05  8.4771E+05  7.8857E+05
       7.4348E+05  6.4009E+05  5.5242E+05  4.6927E+05  3.9068E+05  3.1856E+05  2.5592E+05  2.0322E+05  1.6020E+05  1.2575E+05
       9.8459E+04  7.7196E+04  6.1030E+04  5.0304E+04  4.4075E+04  3.9645E+04  3.5617E+04  3.1970E+04  2.8769E+04  2.6088E+04
       2.3942E+04  2.2284E+04  2.1049E+04  2.0168E+04  1.9565E+04  1.9167E+04  1.8950E+04  1.8933E+04  1.9062E+04  1.9513E+04
       2.0281E+04  2.0844E+04  1.0000E+30  1.0000E+30
  26   1.0000E+30  1.0000E+30  1.0000E+30  6.7544E+05  8.1199E+05  9.3444E+05  9.8263E+05  9.6297E+05  8.7509E+05  8.1495E+05
       7.6849E+05  6.6568E+05  5.7569E+05  4.8783E+05  4.0517E+05  3.3013E+05  2.6538E+05  2.1106E+05  1.6665E+05  1.3103E+05
       1.0285E+05  8.0906E+04  6.4177E+04  5.3063E+04  4.6615E+04  4.2049E+04  3.7902E+04  3.4139E+04  3.0803E+04  2.7954E+04
       2.5622E+04  2.3788E+04  2.2413E+04  2.1435E+04  2.0774E+04  2.0358E+04  2.0127E+04  2.0135E+04  2.0388E+04  2.1108E+04
       2.2422E+04  2.3789E+04  1.0000E+30  1.0000E+30
  27   1.0000E+30  1.0000E+30  1.0000E+30  1.0000E+30  8.7413E+05  9.6593E+05  1.0064E+06  9.8455E+05  8.9750E+05  8.3714E+05
       7.8969E+05  6.9070E+05  6.0012E+05  5.0648E+05  4.1911E+05  3.4096E+05  2.7414E+05  2.1833E+05  1.7271E+05  1.3608E+05
       1.0709E+05  8.4515E+04  6.7266E+04  5.5771E+04  4.9097E+04  4.4392E+04  4.0136E+04  3.6270E+04  3.2827E+04  2.9850E+04
       2.7365E+04  2.5374E+04  2.3860E+04  2.2775E+04  2.2047E+04  2.1606E+04  2.1398E+04  2.1412E+04  2.1753E+04  2.2759E+04
       2.4720E+04  2.6967E+04  1.0000E+30  1.0000E+30
  28   1.0000E+30  1.0000E+30  1.0000E+30  1.0000E+30  9.0992E+05  9.9138E+05  1.0228E+06  1.0011E+06  9.1924E+05  8.6011E+05
       8.0406E+05  7.2225E+05  6.3406E+05  5.3002E+05  4.3564E+05  3.5340E+05  2.8406E+05  2.2657E+05  1.7968E+05  1.4199E+05
       1.1214E+05  8.8883E+04  7.1036E+04  5.9066E+04  5.2091E+04  4.7197E+04  4.2803E+04  3.8819E+04  3.5252E+04  3.2141E+04
       2.9508E+04  2.7361E+04  2.5697E+04  2.4486E+04  2.3666E+04  2.3175E+04  2.2968E+04  2.3032E+04  2.3450E+04  2.4815E+04
       2.7666E+04  3.1215E+04  1.0000E+30  1.0000E+30
  29   1.0000E+30  1.0000E+30  1.0000E+30  1.0000E+30  1.0000E+30  1.0033E+06  1.0141E+06  9.9839E+05  9.3811E+05  8.8947E+05
       8.4141E+05  7.7437E+05  6.9821E+05  5.6309E+05  4.5617E+05  3.6799E+05  2.9546E+05  2.3610E+05  1.8794E+05  1.4925E+05
       1.1859E+05  9.4626E+04  7.6076E+04  6.3475E+04  5.6065E+04  5.0867E+04  4.6237E+04  4.2080E+04  3.8358E+04  3.5083E+04
       3.2281E+04  2.9965E+04  2.8133E+04  2.6763E+04  2.5810E+04  2.5227E+04  2.4981E+04  2.5063E+04  2.5594E+04  2.7371E+04
       3.1547E+04  3.9064E+04  1.0000E+30  1.0000E+30
  30   1.0000E+30  1.0000E+30  1.0000E+30  1.0000E+30  1.0000E+30  1.0000E+30  1.0000E+30  9.7567E+05  9.4914E+05  9.1956E+05
       9.0411E+05  8.4517E+05  7.4542E+05  5.8973E+05  4.7214E+05  3.7894E+05  3.0396E+05  2.4351E+05  1.9480E+05  1.5578E+05
       1.2482E+05  1.0045E+05  8.1296E+04  6.8058E+04  6.0172E+04  5.4603E+04  4.9652E+04  4.5242E+04  4.1323E+04  3.7883E+04
       3.4928E+04  3.2463E+04  3.0481E+04  2.8958E+04  2.7864E+04  2.7166E+04  2.6839E+04  2.6868E+04  2.7347E+04  2.8951E+04
       3.2296E+04  3.7480E+04  4.3374E+04  1.0000E+30
  31   1.0000E+30  1.0000E+30  1.0000E+30  1.0000E+30  1.0000E+30  1.0000E+30  1.0000E+30  1.0000E+30  9.5336E+05  9.2815E+05
       9.1936E+05  8.6952E+05  7.6498E+05  6.0008E+05  4.7750E+05  3.8242E+05  3.0728E+05  2.4716E+05  1.9893E+05  1.6039E+05
       1.2977E+05  1.0538E+05  8.5755E+04  7.1928E+04  6.3601E+04  5.7690E+04  5.2425E+04  4.7743E+04  4.3607E+04  4.0000E+04
       3.6918E+04  3.4340E+04  3.2240E+04  3.0595E+04  2.9388E+04  2.8600E+04  2.8209E+04  2.8186E+04  2.8580E+04  2.9870E+04
       3.2008E+04  3.4623E+04  3.6791E+04  3.4763E+04
  32   1.0000E+30  1.0000E+30  1.0000E+30  1.0000E+30  1.0000E+30  1.0000E+30  1.0000E+30  1.0000E+30  1.0000E+30  9.0870E+05
       8.9264E+05  8.6220E+05  7.6234E+05  5.9206E+05  4.7066E+05  3.7824E+05  3.0559E+05  2.4733E+05  2.0051E+05  1.6322E+05
       1.3361E+05  1.0958E+05  8.9366E+04  7.4846E+04  6.6058E+04  5.9815E+04  5.4266E+04  4.9356E+04  4.5051E+04  4.1332E+04
       3.8204E+04  3.5594E+04  3.3419E+04  3.1628E+04  3.0302E+04  2.9450E+04  2.9056E+04  2.9092E+04  2.9612E+04  3.1015E+04
       3.2071E+04  3.3083E+04  3.4006E+04  3.3644E+04
  33   1.0000E+30  1.0000E+30  1.0000E+30  1.0000E+30  1.0000E+30  1.0000E+30  1.0000E+30  1.0000E+30  1.0000E+30  1.0000E+30
       8.6445E+05  8.3742E+05  7.4827E+05  5.5909E+05  4.5023E+05  3.6694E+05  2.9980E+05  2.4471E+05  1.9988E+05  1.6454E+05
       1.3687E+05  1.1386E+05  9.2131E+04  7.6535E+04  6.7191E+04  6.0619E+04  5.4834E+04  4.9754E+04  4.5318E+04  4.1506E+04
       3.8656E+04  3.6354E+04  3.4278E+04  3.1952E+04  3.0387E+04  2.9470E+04  2.9148E+04  2.9417E+04  3.0559E+04  3.2967E+04
       3.3301E+04  3.3099E+04  1.0000E+30  1.0000E+30
  34   1.0000E+30  1.0000E+30  1.0000E+30  1.0000E+30  1.0000E+30  1.0000E+30  1.0000E+30  1.0000E+30  1.0000E+30  1.0000E+30
       1.0000E+30  1.0000E+30  1.0000E+30  4.9089E+05  4.1873E+05  3.5193E+05  2.9224E+05  2.4051E+05  1.9704E+05  1.6431E+05
       1.4044E+05  1.2072E+05  9.3766E+04  7.6509E+04  6.6510E+04  5.9693E+04  5.3797E+04  4.8648E+04  4.4106E+04  4.1210E+04
       3.9674E+04  3.8437E+04  3.7718E+04  1.0000E+30  1.0000E+30  1.0000E+30  1.0000E+30  1.0000E+30  1.0000E+30  1.0000E+30
       1.0000E+30  1.0000E+30  1.0000E+30  1.0000E+30
  35   1.0000E+30  1.0000E+30  1.0000E+30  1.0000E+30  1.0000E+30  1.0000E+30  1.0000E+30  1.0000E+30  1.0000E+30  1.0000E+30
       1.0000E+30  1.0000E+30  1.0000E+30  1.0000E+30  3.8378E+05  3.4191E+05  2.8688E+05  2.3653E+05  1.9052E+05  1.6206E+05
       1.4645E+05  1.3605E+05  1.0000E+30  1.0000E+30  1.0000E+30  1.0000E+30  1.0000E+30  1.0000E+30  1.0000E+30  1.0000E+30
       1.0000E+30  1.0000E+30  1.0000E+30  1.0000E+30  1.0000E+30  1.0000E+30  1.0000E+30  1.0000E+30  1.0000E+30  1.0000E+30
       1.0000E+30  1.0000E+30  1.0000E+30  1.0000E+30

 HEAD WILL BE SAVED ON UNIT 1028 AT END OF TIME STEP    1, STRESS PERIOD    1


  VOLUME BUDGET FOR ENTIRE MODEL AT END OF TIME STEP    1, STRESS PERIOD   1
  ---------------------------------------------------------------------------------------------------

     CUMULATIVE VOLUME      L**3       RATES FOR THIS TIME STEP      L**3/T          PACKAGE NAME    
     ------------------                 ------------------------                     ----------------

           IN:                                      IN:
           ---                                      ---
                 DRN =           0.0000                   DRN =           0.0000     DRN             
                 GHB =           0.0000                   GHB =           0.0000     GHB             
                 RCH =           3.8181                   RCH =           3.8181     RCH             
                 CHD =       1.7322E-05                   CHD =       1.7322E-05     CHD             

            TOTAL IN =           3.8182              TOTAL IN =           3.8182

          OUT:                                     OUT:
          ----                                     ----
                 DRN =           2.9578                   DRN =           2.9578     DRN             
                 GHB =           0.1749                   GHB =           0.1749     GHB             
                 RCH =           0.0000                   RCH =           0.0000     RCH             
                 CHD =           0.6855                   CHD =           0.6855     CHD             

           TOTAL OUT =           3.8182             TOTAL OUT =           3.8182

            IN - OUT =      -8.6775E-07              IN - OUT =      -8.6775E-07

 PERCENT DISCREPANCY =          -0.00     PERCENT DISCREPANCY =          -0.00




         TIME SUMMARY AT END OF TIME STEP    1 IN STRESS PERIOD    1
                    SECONDS     MINUTES      HOURS       DAYS        YEARS
                    -----------------------------------------------------------
   TIME STEP LENGTH  1.0000     1.66667E-02 2.77778E-04 1.15741E-05 3.16881E-08
 STRESS PERIOD TIME  1.0000     1.66667E-02 2.77778E-04 1.15741E-05 3.16881E-08
         TOTAL TIME  1.0000     1.66667E-02 2.77778E-04 1.15741E-05 3.16881E-08


end timestep

