                                   MODFLOW 6
                U.S. GEOLOGICAL SURVEY MODULAR HYDROLOGIC MODEL
                          GROUNDWATER FLOW MODEL (GWF)
                            VERSION 6.2.0 10/22/2020

   MODFLOW 6 compiled Oct 22 2020 09:26:42 with IFORT compiler (ver. 19.10.2)

This software has been approved for release by the U.S. Geological 
Survey (USGS). Although the software has been subjected to rigorous 
review, the USGS reserves the right to update the software as needed 
pursuant to further analysis and review. No warranty, expressed or 
implied, is made by the USGS or the U.S. Government as to the 
functionality of the software and related material nor shall the 
fact of release constitute any such warranty. Furthermore, the 
software is released on condition that neither the USGS nor the U.S. 
Government shall be held liable for any damages resulting from its 
authorized or unauthorized use. Also refer to the USGS Water 
Resources Software User Rights Notice for complete use, copyright, 
and distribution information.


System command used to initiate simulation:
C:\WRDAPP\mf6.2.0\bin\mf6

MODFLOW was compiled using uniform precision.

Real Variables
  KIND: 8
  TINY (smallest non-zero value):    2.225074-308
  HUGE (largest value):    1.797693+308
  PRECISION: 15
  BIT SIZE: 64

Integer Variables
  KIND: 4
  HUGE (largest value): 2147483647
  BIT SIZE: 32

Long Integer Variables
  KIND: 8
  HUGE (largest value): 9223372036854775807
  BIT SIZE: 64

Logical Variables
  KIND: 4
  BIT SIZE: 32
 

 OPENED modelo_Norte.dis
 FILE TYPE:DIS6                   UNIT 1005   STATUS:OLD                 
 FORMAT:FORMATTED              ACCESS:SEQUENTIAL          
 ACTION:READ                


 OPENED modelo_Norte.rch
 FILE TYPE:RCH6                   UNIT 1006   STATUS:OLD                 
 FORMAT:FORMATTED              ACCESS:SEQUENTIAL          
 ACTION:READ                


 OPENED modelo_Norte.drn
 FILE TYPE:DRN6                   UNIT 1007   STATUS:OLD                 
 FORMAT:FORMATTED              ACCESS:SEQUENTIAL          
 ACTION:READ                


 OPENED modelo_Norte.chd
 FILE TYPE:CHD6                   UNIT 1008   STATUS:OLD                 
 FORMAT:FORMATTED              ACCESS:SEQUENTIAL          
 ACTION:READ                


 OPENED modelo_Norte.ic
 FILE TYPE:IC6                    UNIT 1009   STATUS:OLD                 
 FORMAT:FORMATTED              ACCESS:SEQUENTIAL          
 ACTION:READ                


 OPENED modelo_Norte.npf
 FILE TYPE:NPF6                   UNIT 1010   STATUS:OLD                 
 FORMAT:FORMATTED              ACCESS:SEQUENTIAL          
 ACTION:READ                


 OPENED modelo_Norte.oc
 FILE TYPE:OC6                    UNIT 1011   STATUS:OLD                 
 FORMAT:FORMATTED              ACCESS:SEQUENTIAL          
 ACTION:READ                


 DIS -- STRUCTURED GRID DISCRETIZATION PACKAGE, VERSION 2 : 3/27/2014 - INPUT READ FROM UNIT 1005


 # File generated by Flopy version 3.3.2 on 05/28/2021 at 22:47:30.
 PROCESSING DISCRETIZATION OPTIONS
    XORIGIN SPECIFIED AS     1102385.12000000    
    YORIGIN SPECIFIED AS     1281362.22000000    
 END OF DISCRETIZATION OPTIONS
 MODEL LENGTH UNIT IS UNDEFINED
 PROCESSING DISCRETIZATION DIMENSIONS
    NLAY =       7
    NROW =      35
    NCOL =      44
 END OF DISCRETIZATION DIMENSIONS
 PROCESSING GRIDDATA
 END PROCESSING GRIDDATA

 THE SPECIFIED IDOMAIN RESULTS IN A REDUCED NUMBER OF CELLS.
 NUMBER OF USER NODES: 10780
 NUMBER OF NODES IN SOLUTION: 5596



 NPF -- NODE PROPERTY FLOW PACKAGE, VERSION 1, 3/30/2015 INPUT READ FROM UNIT 1010


 # File generated by Flopy version 3.3.2 on 05/28/2021 at 22:47:30.
 PROCESSING NPF OPTIONS
    CELL-BY-CELL FLOW INFORMATION WILL BE SAVED TO BINARY FILE WHENEVER ICBCFL IS NOT ZERO.
 END OF NPF OPTIONS

 DRN   -- DRN PACKAGE, VERSION 8, 2/22/2014 INPUT READ FROM UNIT 1007
 # File generated by Flopy version 3.3.2 on 05/28/2021 at 22:47:30.

 PROCESSING DRN OPTIONS
    LISTS OF DRN CELLS WILL BE PRINTED.
    DRN FLOWS WILL BE PRINTED TO LISTING FILE.
    FLOWS WILL BE SAVED TO BUDGET FILE SPECIFIED IN OUTPUT CONTROL
 END OF DRN OPTIONS

 PROCESSING DRN DIMENSIONS
    MAXBOUND =     290
 END OF DRN DIMENSIONS

 RCH   -- RCH PACKAGE, VERSION 8, 2/22/2014 INPUT READ FROM UNIT 1006
 # File generated by Flopy version 3.3.2 on 05/28/2021 at 22:47:30.

 PROCESSING RCH OPTIONS
    LISTS OF RCH CELLS WILL BE PRINTED.
    RCH FLOWS WILL BE PRINTED TO LISTING FILE.
    FLOWS WILL BE SAVED TO BUDGET FILE SPECIFIED IN OUTPUT CONTROL
 END OF RCH OPTIONS

 PROCESSING RCH DIMENSIONS
    MAXBOUND =     839
 END OF RCH DIMENSIONS

 CHD   -- CHD PACKAGE, VERSION 8, 2/22/2014 INPUT READ FROM UNIT 1008
 # File generated by Flopy version 3.3.2 on 05/28/2021 at 22:47:30.

 PROCESSING CHD OPTIONS
    LISTS OF CHD CELLS WILL BE PRINTED.
    CHD FLOWS WILL BE PRINTED TO LISTING FILE.
    FLOWS WILL BE SAVED TO BUDGET FILE SPECIFIED IN OUTPUT CONTROL
 END OF CHD OPTIONS

 PROCESSING CHD DIMENSIONS
    MAXBOUND =     136
 END OF CHD DIMENSIONS

 IC -- INITIAL CONDITIONS PACKAGE, VERSION 8, 3/28/2015 INPUT READ FROM UNIT 1009
 # File generated by Flopy version 3.3.2 on 05/28/2021 at 22:47:30.
 PROCESSING GRIDDATA
 END PROCESSING GRIDDATA
 PROCESSING GRIDDATA

                ICELLTYPE = 1

                        K =  0.1000000E-05
 K33 not provided.  Assuming K33 = K.
 K22 not provided.  Assuming K22 = K.
 END PROCESSING GRIDDATA

 CELL CONVERSIONS FOR ITER.=0  STEP=0  PERIOD=0   (NODE or LRC)
     DRY             (1,2,8) DRY             (1,3,7) DRY             (1,4,7) DRY             (1,5,7) DRY            (1,7,13)
     DRY            (1,7,14) DRY            (1,8,13) DRY            (1,8,14) DRY            (1,8,15) DRY            (1,9,13)
     DRY            (1,9,14) DRY            (1,9,15) DRY            (1,10,7) DRY           (1,10,12) DRY           (1,10,13)
     DRY           (1,10,14) DRY           (1,10,15) DRY            (1,11,7) DRY           (1,11,12) DRY           (1,11,13)
     DRY           (1,11,14) DRY           (1,11,15) DRY           (1,12,12) DRY           (1,12,13) DRY           (1,12,14)
     DRY           (1,12,15) DRY            (1,13,7) DRY           (1,13,11) DRY           (1,13,12) DRY           (1,13,13)
     DRY           (1,13,14) DRY           (1,13,15) DRY           (1,13,16) DRY           (1,14,10) DRY           (1,14,11)
     DRY           (1,14,12) DRY           (1,14,13) DRY           (1,14,14) DRY           (1,14,15) DRY           (1,14,16)
     DRY            (1,15,8) DRY           (1,15,10) DRY           (1,15,11) DRY           (1,15,12) DRY           (1,15,13)
     DRY           (1,15,14) DRY           (1,15,15) DRY           (1,15,16) DRY            (1,16,5) DRY            (1,16,8)
     DRY           (1,16,10) DRY           (1,16,11) DRY           (1,16,12) DRY           (1,16,13) DRY           (1,16,14)
     DRY           (1,16,15) DRY           (1,16,16) DRY            (1,17,3) DRY            (1,17,4) DRY            (1,17,6)
     DRY            (1,17,7) DRY            (1,17,8) DRY           (1,17,10) DRY           (1,17,11) DRY           (1,17,12)
     DRY           (1,17,13) DRY           (1,17,14) DRY           (1,17,15) DRY           (1,17,16) DRY           (1,17,17)
     DRY            (1,18,2) DRY            (1,18,3) DRY            (1,18,4) DRY            (1,18,6) DRY            (1,18,7)
     DRY            (1,18,8) DRY            (1,18,9) DRY           (1,18,10) DRY           (1,18,11) DRY           (1,18,12)
     DRY           (1,18,13) DRY           (1,18,14) DRY           (1,18,15) DRY           (1,18,16) DRY           (1,18,17)
     DRY            (1,19,2) DRY            (1,19,3) DRY            (1,19,4) DRY            (1,19,5) DRY            (1,19,6)
     DRY            (1,19,7) DRY            (1,19,8) DRY            (1,19,9) DRY           (1,19,10) DRY           (1,19,11)
     DRY           (1,19,12) DRY           (1,19,13) DRY           (1,19,14) DRY           (1,19,15) DRY           (1,19,16)
     DRY           (1,19,17) DRY            (1,20,2) DRY            (1,20,3) DRY            (1,20,4) DRY            (1,20,5)
     DRY            (1,20,6) DRY            (1,20,7) DRY            (1,20,8) DRY            (1,20,9) DRY           (1,20,10)
     DRY           (1,20,11) DRY           (1,20,12) DRY           (1,20,13) DRY           (1,20,14) DRY           (1,20,15)
     DRY           (1,20,16) DRY           (1,20,17) DRY            (1,21,2) DRY            (1,21,3) DRY            (1,21,4)
     DRY            (1,21,5) DRY            (1,21,6) DRY            (1,21,7) DRY            (1,21,8) DRY            (1,21,9)
     DRY           (1,21,10) DRY           (1,21,11) DRY           (1,21,12) DRY           (1,21,13) DRY           (1,21,14)
     DRY           (1,21,15) DRY           (1,21,16) DRY           (1,21,17) DRY           (1,21,18) DRY            (1,22,2)
     DRY            (1,22,3) DRY            (1,22,4) DRY            (1,22,5) DRY            (1,22,6) DRY            (1,22,7)
     DRY            (1,22,8) DRY            (1,22,9) DRY           (1,22,10) DRY           (1,22,11) DRY           (1,22,12)
     DRY           (1,22,13) DRY           (1,22,14) DRY           (1,22,15) DRY           (1,22,16) DRY           (1,22,17)
     DRY           (1,22,18) DRY            (1,23,2) DRY            (1,23,3) DRY            (1,23,4) DRY            (1,23,5)
     DRY            (1,23,6) DRY            (1,23,7) DRY            (1,23,8) DRY            (1,23,9) DRY           (1,23,10)
     DRY           (1,23,11) DRY           (1,23,12) DRY           (1,23,13) DRY           (1,23,14) DRY           (1,23,15)
     DRY           (1,23,16) DRY           (1,23,17) DRY           (1,23,18) DRY            (1,24,3) DRY            (1,24,4)
     DRY            (1,24,5) DRY            (1,24,6) DRY            (1,24,7) DRY            (1,24,8) DRY            (1,24,9)
     DRY           (1,24,10) DRY           (1,24,11) DRY           (1,24,12) DRY           (1,24,13) DRY           (1,24,14)
     DRY           (1,24,15) DRY           (1,24,16) DRY           (1,24,17) DRY           (1,24,18) DRY            (1,25,3)
     DRY            (1,25,4) DRY            (1,25,5) DRY            (1,25,6) DRY            (1,25,7) DRY            (1,25,8)
     DRY            (1,25,9) DRY           (1,25,10) DRY           (1,25,11) DRY           (1,25,12) DRY           (1,25,13)
     DRY           (1,25,14) DRY           (1,25,15) DRY           (1,25,16) DRY           (1,25,17) DRY           (1,25,18)
     DRY           (1,25,22) DRY            (1,26,4) DRY            (1,26,5) DRY            (1,26,6) DRY            (1,26,7)
     DRY            (1,26,8) DRY            (1,26,9) DRY           (1,26,10) DRY           (1,26,11) DRY           (1,26,12)
     DRY           (1,26,13) DRY           (1,26,14) DRY           (1,26,15) DRY           (1,26,16) DRY           (1,26,17)
     DRY           (1,26,18) DRY           (1,26,19) DRY           (1,26,20) DRY           (1,26,21) DRY           (1,26,22)
     DRY           (1,26,23) DRY           (1,26,24) DRY           (1,26,29) DRY            (1,27,5) DRY            (1,27,6)
     DRY            (1,27,7) DRY            (1,27,8) DRY            (1,27,9) DRY           (1,27,10) DRY           (1,27,11)
     DRY           (1,27,12) DRY           (1,27,13) DRY           (1,27,14) DRY           (1,27,15) DRY           (1,27,16)
     DRY           (1,27,17) DRY           (1,27,18) DRY           (1,27,19) DRY           (1,27,20) DRY           (1,27,21)
     DRY           (1,27,22) DRY           (1,27,23) DRY           (1,27,24) DRY           (1,27,28) DRY           (1,27,29)
     DRY            (1,28,5) DRY            (1,28,6) DRY            (1,28,7) DRY            (1,28,8) DRY            (1,28,9)
     DRY           (1,28,10) DRY           (1,28,11) DRY           (1,28,12) DRY           (1,28,13) DRY           (1,28,14)
     DRY           (1,28,15) DRY           (1,28,16) DRY           (1,28,17) DRY           (1,28,18) DRY           (1,28,19)
     DRY           (1,28,20) DRY           (1,28,21) DRY           (1,28,22) DRY           (1,28,23) DRY           (1,28,24)
     DRY           (1,28,29) DRY            (1,29,6) DRY            (1,29,7) DRY            (1,29,8) DRY            (1,29,9)
     DRY           (1,29,10) DRY           (1,29,11) DRY           (1,29,12) DRY           (1,29,13) DRY           (1,29,14)
     DRY           (1,29,15) DRY           (1,29,16) DRY           (1,29,17) DRY           (1,29,18) DRY           (1,29,19)
     DRY           (1,29,20) DRY           (1,29,22) DRY           (1,29,23) DRY           (1,29,24) DRY           (1,29,25)
     DRY           (1,29,26) DRY           (1,29,27) DRY           (1,29,28) DRY           (1,29,29) DRY           (1,29,30)
     DRY           (1,29,42) DRY            (1,30,8) DRY            (1,30,9) DRY           (1,30,10) DRY           (1,30,11)
     DRY           (1,30,12) DRY           (1,30,13) DRY           (1,30,14) DRY           (1,30,15) DRY           (1,30,16)
     DRY           (1,30,17) DRY           (1,30,18) DRY           (1,30,19) DRY           (1,30,20) DRY           (1,30,21)
     DRY           (1,30,22) DRY           (1,30,23) DRY           (1,30,24) DRY           (1,30,25) DRY           (1,30,26)
     DRY           (1,30,27) DRY           (1,30,28) DRY           (1,30,29) DRY           (1,30,30) DRY           (1,30,31)
     DRY           (1,30,32) DRY           (1,30,37) DRY           (1,30,42) DRY           (1,30,43) DRY            (1,31,9)
     DRY           (1,31,10) DRY           (1,31,11) DRY           (1,31,12) DRY           (1,31,13) DRY           (1,31,14)
     DRY           (1,31,15) DRY           (1,31,16) DRY           (1,31,17) DRY           (1,31,18) DRY           (1,31,19)
     DRY           (1,31,20) DRY           (1,31,21) DRY           (1,31,22) DRY           (1,31,23) DRY           (1,31,24)
     DRY           (1,31,25) DRY           (1,31,26) DRY           (1,31,27) DRY           (1,31,28) DRY           (1,31,29)
     DRY           (1,31,30) DRY           (1,31,31) DRY           (1,31,32) DRY           (1,31,33) DRY           (1,31,34)
     DRY           (1,31,35) DRY           (1,31,36) DRY           (1,31,37) DRY           (1,31,38) DRY           (1,31,41)
     DRY           (1,31,42) DRY           (1,31,43) DRY           (1,31,44) DRY           (1,32,10) DRY           (1,32,11)
     DRY           (1,32,12) DRY           (1,32,13) DRY           (1,32,14) DRY           (1,32,15) DRY           (1,32,16)
     DRY           (1,32,17) DRY           (1,32,18) DRY           (1,32,19) DRY           (1,32,20) DRY           (1,32,21)
     DRY           (1,32,22) DRY           (1,32,23) DRY           (1,32,24) DRY           (1,32,25) DRY           (1,32,26)
     DRY           (1,32,27) DRY           (1,32,28) DRY           (1,32,29) DRY           (1,32,30) DRY           (1,32,31)
     DRY           (1,32,32) DRY           (1,32,33) DRY           (1,32,34) DRY           (1,32,35) DRY           (1,32,36)
     DRY           (1,32,37) DRY           (1,32,38) DRY           (1,32,41) DRY           (1,32,42) DRY           (1,32,43)
     DRY           (1,33,11) DRY           (1,33,12) DRY           (1,33,13) DRY           (1,33,14) DRY           (1,33,15)
     DRY           (1,33,16) DRY           (1,33,17) DRY           (1,33,18) DRY           (1,33,19) DRY           (1,33,20)
     DRY           (1,33,21) DRY           (1,33,22) DRY           (1,33,23) DRY           (1,33,24) DRY           (1,33,25)
     DRY           (1,33,26) DRY           (1,33,27) DRY           (1,33,28) DRY           (1,33,29) DRY           (1,33,30)
     DRY           (1,33,31) DRY           (1,33,32) DRY           (1,33,33) DRY           (1,33,34) DRY           (1,33,35)
     DRY           (1,33,36) DRY           (1,33,37) DRY           (1,33,38) DRY           (1,33,40) DRY           (1,33,41)
     DRY           (1,33,42) DRY           (1,34,14) DRY           (1,34,15) DRY           (1,34,16) DRY           (1,34,17)
     DRY           (1,34,18) DRY           (1,34,19) DRY           (1,34,20) DRY           (1,34,21) DRY           (1,34,22)
     DRY           (1,34,23) DRY           (1,34,24) DRY           (1,34,25) DRY           (1,34,26) DRY           (1,34,27)
     DRY           (1,34,28) DRY           (1,34,29) DRY           (1,34,30) DRY           (1,34,31) DRY           (1,34,32)
     DRY           (1,34,33) DRY           (1,35,15) DRY           (1,35,16) DRY           (1,35,17) DRY           (1,35,18)
     DRY           (1,35,19) DRY           (1,35,20) DRY           (1,35,21) DRY           (1,35,22) DRY           (2,10,14)
     DRY           (2,10,15) DRY           (2,11,15) DRY           (2,12,14) DRY           (2,12,15) DRY           (2,13,13)
     DRY           (2,13,14) DRY           (2,13,15) DRY           (2,14,13) DRY           (2,14,14) DRY           (2,14,15)
     DRY           (2,15,13) DRY           (2,15,14) DRY           (2,15,15) DRY           (2,16,10) DRY           (2,16,12)
     DRY           (2,16,13) DRY           (2,16,14) DRY           (2,16,15) DRY           (2,17,10) DRY           (2,17,11)
     DRY           (2,17,12) DRY           (2,17,13) DRY           (2,17,14) DRY           (2,17,15) DRY           (2,17,16)
     DRY           (2,18,10) DRY           (2,18,12) DRY           (2,18,14) DRY           (2,18,15) DRY           (2,18,16)
     DRY            (2,19,9) DRY           (2,19,10) DRY           (2,19,11) DRY           (2,19,12) DRY           (2,19,13)
     DRY           (2,19,14) DRY           (2,19,15) DRY           (2,19,16) DRY           (2,19,17) DRY            (2,20,8)
     DRY            (2,20,9) DRY           (2,20,10) DRY           (2,20,11) DRY           (2,20,12) DRY           (2,20,13)
     DRY           (2,20,14) DRY           (2,20,15) DRY           (2,20,16) DRY           (2,20,17) DRY            (2,21,8)
     DRY            (2,21,9) DRY           (2,21,10) DRY           (2,21,11) DRY           (2,21,12) DRY           (2,21,13)
     DRY           (2,21,14) DRY           (2,21,15) DRY           (2,21,16) DRY           (2,21,17) DRY            (2,22,6)
     DRY            (2,22,7) DRY            (2,22,8) DRY            (2,22,9) DRY           (2,22,10) DRY           (2,22,11)
     DRY           (2,22,12) DRY           (2,22,13) DRY           (2,22,14) DRY           (2,22,15) DRY           (2,22,16)
     DRY           (2,22,17) DRY            (2,23,5) DRY            (2,23,6) DRY            (2,23,7) DRY            (2,23,8)
     DRY            (2,23,9) DRY           (2,23,10) DRY           (2,23,11) DRY           (2,23,12) DRY           (2,23,13)
     DRY           (2,23,14) DRY           (2,23,15) DRY           (2,23,16) DRY           (2,23,17) DRY            (2,24,5)
     DRY            (2,24,7) DRY            (2,24,8) DRY            (2,24,9) DRY           (2,24,10) DRY           (2,24,11)
     DRY           (2,24,12) DRY           (2,24,13) DRY           (2,24,14) DRY           (2,24,15) DRY           (2,24,16)
     DRY           (2,24,17) DRY            (2,25,7) DRY            (2,25,8) DRY            (2,25,9) DRY           (2,25,10)
     DRY           (2,25,11) DRY           (2,25,12) DRY           (2,25,13) DRY           (2,25,14) DRY           (2,25,15)
     DRY           (2,25,16) DRY           (2,25,17) DRY            (2,26,9) DRY           (2,26,10) DRY           (2,26,11)
     DRY           (2,26,12) DRY           (2,26,13) DRY           (2,26,14) DRY           (2,26,15) DRY           (2,26,16)
     DRY           (2,26,17) DRY            (2,27,9) DRY           (2,27,10) DRY           (2,27,11) DRY           (2,27,12)
     DRY           (2,27,13) DRY           (2,27,14) DRY           (2,27,15) DRY           (2,27,16) DRY           (2,27,17)
     DRY           (2,27,18) DRY            (2,28,7) DRY            (2,28,8) DRY            (2,28,9) DRY           (2,28,10)
     DRY           (2,28,11) DRY           (2,28,12) DRY           (2,28,13) DRY           (2,28,14) DRY           (2,28,15)
     DRY           (2,28,16) DRY           (2,28,17) DRY           (2,28,18) DRY            (2,29,9) DRY           (2,29,10)
     DRY           (2,29,11) DRY           (2,29,12) DRY           (2,29,13) DRY           (2,29,14) DRY           (2,29,15)
     DRY           (2,29,16) DRY           (2,29,17) DRY           (2,29,18) DRY           (2,29,19) DRY           (2,29,26)
     DRY           (2,29,27) DRY           (2,29,28) DRY            (2,30,9) DRY           (2,30,10) DRY           (2,30,11)
     DRY           (2,30,12) DRY           (2,30,13) DRY           (2,30,14) DRY           (2,30,15) DRY           (2,30,16)
     DRY           (2,30,17) DRY           (2,30,18) DRY           (2,30,19) DRY           (2,30,23) DRY           (2,30,24)
     DRY           (2,30,25) DRY           (2,30,26) DRY           (2,30,27) DRY           (2,30,28) DRY           (2,30,29)
     DRY           (2,31,10) DRY           (2,31,11) DRY           (2,31,12) DRY           (2,31,13) DRY           (2,31,14)
     DRY           (2,31,15) DRY           (2,31,16) DRY           (2,31,17) DRY           (2,31,18) DRY           (2,31,19)
     DRY           (2,31,20) DRY           (2,31,21) DRY           (2,31,22) DRY           (2,31,23) DRY           (2,31,24)
     DRY           (2,31,25) DRY           (2,31,26) DRY           (2,31,27) DRY           (2,31,28) DRY           (2,31,29)
     DRY           (2,31,30) DRY           (2,31,31) DRY           (2,31,42) DRY           (2,32,12) DRY           (2,32,13)
     DRY           (2,32,14) DRY           (2,32,15) DRY           (2,32,16) DRY           (2,32,17) DRY           (2,32,18)
     DRY           (2,32,19) DRY           (2,32,20) DRY           (2,32,21) DRY           (2,32,22) DRY           (2,32,23)
     DRY           (2,32,24) DRY           (2,32,25) DRY           (2,32,26) DRY           (2,32,27) DRY           (2,32,28)
     DRY           (2,32,29) DRY           (2,32,30) DRY           (2,32,31) DRY           (2,32,32) DRY           (2,32,33)
     DRY           (2,32,34) DRY           (2,32,42) DRY           (2,32,43) DRY           (2,33,13) DRY           (2,33,14)
     DRY           (2,33,15) DRY           (2,33,16) DRY           (2,33,17) DRY           (2,33,18) DRY           (2,33,19)
     DRY           (2,33,20) DRY           (2,33,21) DRY           (2,33,22) DRY           (2,33,23) DRY           (2,33,24)
     DRY           (2,33,25) DRY           (2,33,26) DRY           (2,33,27) DRY           (2,33,28) DRY           (2,33,29)
     DRY           (2,33,30) DRY           (2,33,31) DRY           (2,33,32) DRY           (2,33,33) DRY           (2,33,34)
     DRY           (2,34,15) DRY           (2,34,16) DRY           (2,34,17) DRY           (2,34,18) DRY           (2,34,19)
     DRY           (2,34,20) DRY           (2,34,21) DRY           (2,34,22) DRY           (2,34,23) DRY           (2,34,24)
     DRY           (2,34,25) DRY           (2,34,26) DRY           (2,34,27) DRY           (2,34,28) DRY           (2,34,29)
     DRY           (2,35,16) DRY           (2,35,17) DRY           (2,35,18) DRY           (2,35,19) DRY           (3,10,14)
     DRY           (3,10,15) DRY           (3,11,15) DRY           (3,13,15) DRY           (3,14,15) DRY           (3,15,15)
     DRY           (3,16,10) DRY           (3,16,12) DRY           (3,16,14) DRY           (3,16,15) DRY           (3,17,11)
     DRY           (3,17,12) DRY           (3,17,13) DRY           (3,17,14) DRY           (3,17,15) DRY           (3,18,10)
     DRY           (3,18,12) DRY           (3,18,14) DRY           (3,18,15) DRY           (3,19,10) DRY           (3,19,11)
     DRY           (3,19,12) DRY           (3,19,13) DRY           (3,19,14) DRY           (3,19,15) DRY           (3,19,16)
     DRY            (3,20,8) DRY           (3,20,11) DRY           (3,20,12) DRY           (3,20,13) DRY           (3,20,14)
     DRY           (3,20,15) DRY           (3,20,16) DRY            (3,21,8) DRY           (3,21,11) DRY           (3,21,12)
     DRY           (3,21,13) DRY           (3,21,14) DRY           (3,21,15) DRY           (3,21,16) DRY            (3,22,6)
     DRY            (3,22,7) DRY            (3,22,8) DRY           (3,22,10) DRY           (3,22,11) DRY           (3,22,12)
     DRY           (3,22,13) DRY           (3,22,14) DRY           (3,22,15) DRY           (3,22,16) DRY            (3,23,5)
     DRY            (3,23,6) DRY            (3,23,7) DRY            (3,23,8) DRY           (3,23,10) DRY           (3,23,11)
     DRY           (3,23,12) DRY           (3,23,13) DRY           (3,23,14) DRY           (3,23,15) DRY           (3,23,16)
     DRY            (3,24,5) DRY            (3,24,7) DRY            (3,24,8) DRY           (3,24,10) DRY           (3,24,11)
     DRY           (3,24,12) DRY           (3,24,13) DRY           (3,24,14) DRY           (3,24,15) DRY           (3,24,16)
     DRY            (3,25,7) DRY            (3,25,8) DRY           (3,25,10) DRY           (3,25,11) DRY           (3,25,12)
     DRY           (3,25,13) DRY           (3,25,14) DRY           (3,25,15) DRY           (3,25,16) DRY           (3,25,17)
     DRY           (3,26,10) DRY           (3,26,11) DRY           (3,26,12) DRY           (3,26,13) DRY           (3,26,14)
     DRY           (3,26,15) DRY           (3,26,16) DRY           (3,26,17) DRY            (3,27,9) DRY           (3,27,10)
     DRY           (3,27,11) DRY           (3,27,12) DRY           (3,27,13) DRY           (3,27,14) DRY           (3,27,15)
     DRY           (3,27,16) DRY           (3,27,17) DRY            (3,28,7) DRY            (3,28,8) DRY            (3,28,9)
     DRY           (3,28,10) DRY           (3,28,11) DRY           (3,28,12) DRY           (3,28,13) DRY           (3,28,14)
     DRY           (3,28,15) DRY           (3,28,16) DRY           (3,28,17) DRY           (3,29,10) DRY           (3,29,11)
     DRY           (3,29,12) DRY           (3,29,13) DRY           (3,29,14) DRY           (3,29,15) DRY           (3,29,16)
     DRY           (3,29,17) DRY           (3,30,10) DRY           (3,30,11) DRY           (3,30,12) DRY           (3,30,13)
     DRY           (3,30,14) DRY           (3,30,15) DRY           (3,30,16) DRY           (3,30,17) DRY           (3,30,27)
     DRY           (3,30,28) DRY           (3,31,11) DRY           (3,31,12) DRY           (3,31,13) DRY           (3,31,14)
     DRY           (3,31,15) DRY           (3,31,16) DRY           (3,31,17) DRY           (3,31,24) DRY           (3,31,27)
     DRY           (3,31,28) DRY           (3,32,12) DRY           (3,32,13) DRY           (3,32,14) DRY           (3,32,15)
     DRY           (3,32,16) DRY           (3,32,17) DRY           (3,32,23) DRY           (3,32,24) DRY           (3,32,25)
     DRY           (3,32,26) DRY           (3,32,27) DRY           (3,32,28) DRY           (3,32,29) DRY           (3,33,13)
     DRY           (3,33,14) DRY           (3,33,15) DRY           (3,33,16) DRY           (3,33,17) DRY           (3,33,22)
     DRY           (3,33,23) DRY           (3,33,24) DRY           (3,33,25) DRY           (3,33,26) DRY           (3,33,27)
     DRY           (3,33,28) DRY           (3,33,29) DRY           (3,33,30) DRY           (3,34,15) DRY           (3,34,16)
     DRY           (3,34,17) DRY           (3,34,22) DRY           (3,34,23) DRY           (3,34,24) DRY           (3,34,25)
     DRY           (3,34,26) DRY           (3,34,27) DRY           (3,34,28) DRY           (3,34,29) DRY           (3,35,16)
     DRY           (3,35,17) DRY            (4,7,14) DRY            (4,8,14) DRY            (4,9,15) DRY           (4,15,11)
     DRY            (4,16,8) DRY           (4,16,11) DRY            (4,17,8) DRY           (4,17,11) DRY           (4,17,12)
     DRY           (4,17,13) DRY            (4,18,7) DRY            (4,18,8) DRY           (4,18,11) DRY           (4,18,12)
     DRY           (4,18,13) DRY           (4,18,14) DRY            (4,19,6) DRY            (4,19,7) DRY           (4,19,11)
     DRY           (4,19,12) DRY           (4,19,13) DRY           (4,19,14) DRY           (4,19,15) DRY            (4,20,6)
     DRY            (4,20,7) DRY            (4,20,8) DRY           (4,20,11) DRY           (4,20,12) DRY           (4,20,13)
     DRY           (4,20,14) DRY           (4,20,15) DRY            (4,21,6) DRY            (4,21,7) DRY            (4,21,8)
     DRY           (4,21,11) DRY           (4,21,12) DRY           (4,21,13) DRY           (4,21,14) DRY           (4,21,15)
     DRY            (4,22,3) DRY            (4,22,4) DRY            (4,22,5) DRY            (4,22,6) DRY            (4,22,7)
     DRY            (4,22,8) DRY           (4,22,11) DRY           (4,22,12) DRY           (4,22,13) DRY           (4,22,14)
     DRY           (4,22,15) DRY            (4,23,3) DRY            (4,23,4) DRY            (4,23,5) DRY            (4,23,6)
     DRY            (4,23,7) DRY            (4,23,8) DRY           (4,23,11) DRY           (4,23,12) DRY           (4,23,13)
     DRY           (4,23,14) DRY           (4,23,15) DRY            (4,24,4) DRY            (4,24,5) DRY            (4,24,6)
     DRY            (4,24,7) DRY            (4,24,8) DRY           (4,24,11) DRY           (4,24,12) DRY           (4,24,13)
     DRY           (4,24,14) DRY           (4,24,15) DRY            (4,25,4) DRY            (4,25,5) DRY            (4,25,6)
     DRY            (4,25,7) DRY            (4,25,8) DRY           (4,25,10) DRY           (4,25,11) DRY           (4,25,12)
     DRY           (4,25,13) DRY           (4,25,14) DRY           (4,25,15) DRY            (4,26,5) DRY            (4,26,6)
     DRY            (4,26,7) DRY            (4,26,8) DRY           (4,26,10) DRY           (4,26,11) DRY           (4,26,12)
     DRY           (4,26,13) DRY           (4,26,14) DRY           (4,26,15) DRY            (4,27,6) DRY            (4,27,7)
     DRY            (4,27,8) DRY           (4,27,10) DRY           (4,27,11) DRY           (4,27,12) DRY           (4,27,13)
     DRY           (4,27,14) DRY           (4,27,15) DRY            (4,28,6) DRY            (4,28,7) DRY            (4,28,8)
     DRY           (4,28,10) DRY           (4,28,11) DRY           (4,28,12) DRY           (4,28,13) DRY           (4,28,14)
     DRY           (4,28,15) DRY            (4,29,8) DRY           (4,29,11) DRY           (4,29,12) DRY           (4,29,13)
     DRY           (4,29,14) DRY           (4,29,15) DRY           (4,30,11) DRY           (4,30,12) DRY           (4,30,13)
     DRY           (4,30,14) DRY           (4,30,15) DRY           (4,30,16) DRY           (4,31,11) DRY           (4,31,12)
     DRY           (4,31,13) DRY           (4,31,14) DRY           (4,31,15) DRY           (4,32,12) DRY           (4,32,13)
     DRY           (4,32,14) DRY           (4,32,15) DRY           (4,33,13) DRY           (4,33,14) DRY           (4,33,15)
     DRY           (4,34,15) DRY           (5,18,12) DRY           (5,19,12) DRY            (5,20,8) DRY            (5,21,7)
     DRY            (5,21,8) DRY            (5,22,7) DRY            (5,22,8) DRY           (5,22,11) DRY            (5,23,6)
     DRY            (5,23,7) DRY            (5,23,8) DRY           (5,23,11) DRY            (5,24,6) DRY            (5,24,7)
     DRY            (5,24,8) DRY           (5,24,11) DRY            (5,25,6) DRY            (5,25,7) DRY            (5,25,8)
     DRY           (5,25,11) DRY            (5,26,6) DRY            (5,26,7) DRY            (5,26,8) DRY           (5,26,11)
     DRY            (5,27,6) DRY            (5,27,7) DRY            (5,27,8) DRY           (5,27,11) DRY            (5,28,6)
     DRY            (5,28,7) DRY            (5,28,8) DRY            (5,29,8) DRY           (5,29,13) DRY           (5,30,11)
     DRY           (5,30,12) DRY           (5,30,13) DRY           (5,31,11) DRY           (5,31,12) DRY           (5,31,13)
     DRY           (5,32,12) DRY           (5,32,13) DRY           (5,33,13)
    BINARY GRID INFORMATION WILL BE WRITTEN TO:
      UNIT NUMBER: 1013
      FILE NAME: D:\OneDrive - UNIVERSIDAD INDUSTRIAL DE SANTANDER\Maestria\06_Tesis\01_Tesis_Dev\09_Python\data\modelo_Norte\modelo_Norte.dis.grb

 OPENED D:\OneDrive - UNIVERSIDAD INDUSTRIAL DE SANTANDER\Maestria\06_Tesis\01_Tesis_Dev\09_Python\data\modelo_Norte\modelo_Norte.dis.grb
 FILE TYPE:DATA(BINARY)   UNIT 1013   STATUS:REPLACE             
 FORMAT:UNFORMATTED            ACCESS:STREAM              
 ACTION:READWRITE           

      THE LAST TIME STEP WILL BE PRINTED
      THE LAST TIME STEP WILL BE PRINTED
 # File generated by Flopy version 3.3.2 on 05/28/2021 at 22:47:30.

 PROCESSING OC OPTIONS

    BUDGET INFORMATION WILL BE WRITTEN TO:
      UNIT NUMBER: 1014
      FILE NAME: modelo_Norte.cbb

 OPENED modelo_Norte.cbb
 FILE TYPE:DATA(BINARY)   UNIT 1014   STATUS:REPLACE             
 FORMAT:UNFORMATTED            ACCESS:STREAM              
 ACTION:READWRITE           

    HEAD INFORMATION WILL BE WRITTEN TO:
      UNIT NUMBER: 1015
      FILE NAME: modelo_Norte.hds

 OPENED modelo_Norte.hds
 FILE TYPE:DATA(BINARY)   UNIT 1015   STATUS:REPLACE             
 FORMAT:UNFORMATTED            ACCESS:STREAM              
 ACTION:READWRITE           

 END OF OC OPTIONS

start timestep kper="1" kstp="1" mode="normal"


 BEGIN READING OUTPUT CONTROL FOR STRESS PERIOD 1
      ALL TIME STEPS WILL BE SAVED
      ALL TIME STEPS WILL BE SAVED
      THE LAST TIME STEP WILL BE PRINTED

 END READING OUTPUT CONTROL FOR STRESS PERIOD 1
 --------------------------------------------------------------------
  DRN NO.    LAYER    ROW     COL      DRAIN EL.       CONDUCTANCE   
 --------------------------------------------------------------------
     1         1      16      40     664.425293       0.100000000    
     2         1      28       5     667.757690       7.500000000E-02
     3         1      31      10     751.700745       0.100000000    
     4         1       9      10     621.000000       0.100000000    
     5         1      30      42     856.928406       0.100000000    
     6         1      12      15     712.910828       0.100000000    
     7         1      26      26     751.973328       2.500000000E-02
     8         1      26      35     810.182068       2.500000000E-02
     9         1      23      29     767.000000       2.500000000E-02
     10        1      15      25     653.000000       5.000000000E-02
     11        1      27       8     681.000000       5.000000000E-02
     12        1      19      13     719.412598       0.100000000    
     13        1      16      26     669.289551       5.000000000E-02
     14        1      27      26     757.380005       2.500000000E-02
     15        1      19      31     716.213745       5.000000000E-02
     16        1      28       9     724.861938       7.500000000E-02
     17        1      30      28     820.360535       5.000000000E-02
     18        1      20       5     632.507568       0.100000000    
     19        1      31      14     825.285584       0.100000000    
     20        1      34      16     880.235474       0.100000000    
     21        1      11      23     640.039429       0.100000000    
     22        1      26      21     801.887451       5.000000000E-02
     23        1      16      12     673.573486       0.100000000    
     24        1      27      21     806.006592       5.000000000E-02
     25        1      18      40     739.135681       0.100000000    
     26        1      30      14     822.059326       0.100000000    
     27        1      30      41     876.212463       0.100000000    
     28        1      26       7     686.208923       5.000000000E-02
     29        1      11      18     640.265808       0.100000000    
     30        1      23      28     749.396667       2.500000000E-02
     31        1      15      24     659.000000       7.500000000E-02
     32        1      27       7     669.000000       5.000000000E-02
     33        1      30       9     731.490967       0.100000000    
     34        1      22      14     755.018311       5.000000000E-02
     35        1      22      41     734.254578       5.000000000E-02
     36        1      11      13     657.692261       0.100000000    
     37        1      34      15     829.692871       0.100000000    
     38        1      26      11     747.182861       5.000000000E-02
     39        1      11      22     639.737000       0.100000000    
     40        1      25      42     763.316101       5.000000000E-02
     41        1      17      38     727.000000       5.000000000E-02
     42        1      18      21     735.000000       0.100000000    
     43        1      29      21     830.456970       0.100000000    
     44        1      18      30     704.815735       5.000000000E-02
     45        1      18      39     759.341125       7.500000000E-02
     46        1      30      13     801.103088       0.100000000    
     47        1      22      27     751.606689       2.500000000E-02
     48        1      29       7     684.250000       0.100000000    
     49        1      29      16     894.805725       0.100000000    
     50        1      10      12     647.553711       0.100000000    
     51        1      18      25     711.216003       5.000000000E-02
     52        1      29      25     789.973999       5.000000000E-02
     53        1      10      21     642.199951       0.100000000    
     54        1      30       8     713.715759       0.100000000    
     55        1      26      10     723.000000       5.000000000E-02
     56        1      25      32     787.000000       2.500000000E-02
     57        1      17      28     685.358154       5.000000000E-02
     58        1      17      37     723.000000       5.000000000E-02
     59        1      29      11     749.000000       0.100000000    
     60        1      29      20     827.887085       0.100000000    
     61        1      18      29     703.000000       5.000000000E-02
     62        1      29      29     813.000000       5.000000000E-02
     63        1      18      38     763.000000       5.000000000E-02
     64        1      30      12     790.837036       0.100000000    
     65        1      28      42     800.190430       7.500000000E-02
     66        1      21      21     764.746460       7.500000000E-02
     67        1      24      26     747.265503       2.500000000E-02
     68        1      33      13     795.292908       0.100000000    
     69        1      25       9     703.389221       5.000000000E-02
     70        1      17      14     699.972656       0.100000000    
     71        1      25      27     751.206726       2.500000000E-02
     72        1      17      41     670.971924       0.100000000    
     73        1      29       6     683.436401       0.100000000    
     74        1      10      11     631.000000       0.100000000    
     75        1      18      24     707.047913       7.500000000E-02
     76        1      29      24     788.048523       7.500000000E-02
     77        1      20      33     753.950684       5.000000000E-02
     78        1      31      42     897.000000       0.100000000    
     79        1      20      42     691.060974       0.100000000    
     80        1      21      25     729.355896       3.750000000E-02
     81        1      13      21     676.025818       0.100000000    
     82        1      24      21     785.079102       5.000000000E-02
     83        1      24      30     777.605591       2.500000000E-02
     84        1      32      43     977.628906       0.100000000    
     85        1      21      43     696.250610       7.500000000E-02
     86        1      25       4     646.068176       5.000000000E-02
     87        1      17      27     677.467896       5.000000000E-02
     88        1      17      36     727.755371       5.000000000E-02
     89        1      29      10     747.381287       0.100000000    
     90        1      20      28     722.501770       5.000000000E-02
     91        1      31      28     834.707642       5.000000000E-02
     92        1      32      11     748.739685       0.100000000    
     93        1      33      12     770.996887       0.100000000    
     94        1      24      43     755.191528       5.000000000E-02
     95        1      25       8     730.048218       5.000000000E-02
     96        1      14      17     733.000000       0.100000000    
     97        1      17      13     674.576294       0.100000000    
     98        1      25      26     749.000000       2.500000000E-02
     99        1      18       5     619.000000       0.100000000    
    100        1      16      35     700.123718       5.000000000E-02
    101        1      10      10     625.228210       0.100000000    
    102        1      19      40     739.898926       0.100000000    
    103        1      20      14     726.262695       0.100000000    
    104        1      28      27     784.644775       3.750000000E-02
    105        1      12      19     664.409119       0.100000000    
    106        1      20      41     710.703613       0.100000000    
    107        1      31      41     928.631897       0.100000000    
    108        1      21       6     649.156921       7.500000000E-02
    109        1      32      15     864.753113       0.100000000    
    110        1      24      11     720.937134       5.000000000E-02
    111        1      13      11     649.622681       0.100000000    
    112        1      24      29     770.881042       2.500000000E-02
    113        1      25       3     658.622559       5.000000000E-02
    114        1      14      12     654.362976       0.100000000    
    115        1      16      21     701.000000       0.100000000    
    116        1      16      39     656.333984       7.500000000E-02
    117        1      20       9     713.882874       0.100000000    
    118        1      31       9     715.075012       0.100000000    
    119        1      28      31     798.284851       3.750000000E-02
    120        1      12      14     695.226746       0.100000000    
    121        1      20      27     719.390381       5.000000000E-02
    122        1      12      23     649.025757       0.100000000    
    123        1      21       1     623.164368       7.500000000E-02
    124        1      32      10     761.048096       0.100000000    
    125        1      13      15     719.318176       0.100000000    
    126        1      25       7     723.000000       5.000000000E-02
    127        1      16      25     671.359314       5.000000000E-02
    128        1      19      21     744.752686       0.100000000    
    129        1      19      30     711.774414       5.000000000E-02
    130        1      31      13     783.785645       0.100000000    
    131        1      28      26     777.023315       3.750000000E-02
    132        1      12      18     674.142456       0.100000000    
    133        1      21      14     742.009399       7.500000000E-02
    134        1      32      14     842.021179       0.100000000    
    135        1      35      16     866.598755       0.100000000    
    136        1      23      32     773.845886       2.500000000E-02
    137        1      23      41     766.308533       5.000000000E-02
    138        1      16      38     659.501221       5.000000000E-02
    139        1      19      34     767.407471       5.000000000E-02
    140        1      19      43     669.130920       0.100000000    
    141        1      20       8     713.000000       0.100000000    
    142        1      28      21     820.078857       7.500000000E-02
    143        1      12      13     665.000000       0.100000000    
    144        1      20      26     732.101196       5.000000000E-02
    145        1      12      22     650.594849       0.100000000    
    146        1      26      42     764.618408       5.000000000E-02
    147        1      23      27     754.102539       2.500000000E-02
    148        1      27       6     665.000000       5.000000000E-02
    149        1      16      15     734.307800       0.100000000    
    150        1      16      24     674.927490       7.500000000E-02
    151        1      19      29     715.646667       5.000000000E-02
    152        1      19      38     779.852234       5.000000000E-02
    153        1      31      12     785.690552       0.100000000    
    154        1      34      14     818.416321       0.100000000    
    155        1      23      13     746.969238       5.000000000E-02
    156        1      35      15     851.904480       0.100000000    
    157        1      23      31     771.000000       2.500000000E-02
    158        1      23      40     786.226440       5.000000000E-02
    159        1      19      24     717.431580       7.500000000E-02
    160        1      30      30     820.384338       5.000000000E-02
    161        1      22      26     733.000000       2.500000000E-02
    162        1      26       5     652.594971       5.000000000E-02
    163        1      23      26     735.841125       2.500000000E-02
    164        1      27       5     656.898315       5.000000000E-02
    165        1      16      14     700.552917       0.100000000    
    166        1       8      10     621.000000       0.100000000    
    167        1      18      42     668.327637       0.100000000    
    168        1      29      42     825.719421       0.100000000    
    169        1      30      16     895.793701       0.100000000    
    170        1      22      21     775.388306       5.000000000E-02
    171        1      11      11     638.523010       0.100000000    
    172        1      26       9     696.774414       5.000000000E-02
    173        1      26      27     761.313599       2.500000000E-02
    174        1      23       3     638.928467       5.000000000E-02
    175        1      26      36     817.326294       2.500000000E-02
    176        1      23      12     747.841370       5.000000000E-02
    177        1       4       8     609.000000       0.100000000    
    178        1      23      21     783.612732       5.000000000E-02
    179        1      15      26     652.210999       5.000000000E-02
    180        1      18      28     689.000000       5.000000000E-02
    181        1      29      28     802.066956       5.000000000E-02
    182        1      19       5     621.612610       0.100000000    
    183        1      18      37     755.992004       5.000000000E-02
    184        1      30      11     754.024292       0.100000000    
    185        1      30      20     845.000000       0.100000000    
    186        1      22      16     771.836731       5.000000000E-02
    187        1      30      29     817.342163       5.000000000E-02
    188        1      22      25     744.070801       2.500000000E-02
    189        1      22      43     712.632324       5.000000000E-02
    190        1      26       4     647.964111       5.000000000E-02
    191        1      11      15     705.692566       0.100000000    
    192        1      34      17     919.000000       0.100000000    
    193        1      14      26     649.000000       5.000000000E-02
    194        1      15      12     656.067810       0.100000000    
    195        1      17      40     714.186401       0.100000000    
    196        1      29      23     814.948242       0.100000000    
    197        1      29      32     815.008118       5.000000000E-02
    198        1      18      41     694.550537       0.100000000    
    199        1      22       2     628.716187       5.000000000E-02
    200        1      30      15     844.564331       0.100000000    
    201        1      30      24     823.162659       7.500000000E-02
    202        1      11      10     638.891541       0.100000000    
    203        1      32      42     948.530151       0.100000000    
    204        1      26       8     704.677612       5.000000000E-02
    205        1      21      42     699.917541       7.500000000E-02
    206        1      11      19     633.417664       0.100000000    
    207        1      23       2     641.058716       5.000000000E-02
    208        1      14      21     685.526062       0.100000000    
    209        1      25      21     790.255249       5.000000000E-02
    210        1      17      26     679.063110       5.000000000E-02
    211        1      29       9     732.867737       0.100000000    
    212        1      18      36     757.916321       5.000000000E-02
    213        1      30      10     739.894409       0.100000000    
    214        1      22      15     753.000000       5.000000000E-02
    215        1      11      14     689.548767       0.100000000    
    216        1      33      11     792.457886       0.100000000    
    217        1      24      42     765.125793       5.000000000E-02
    218        1      14      16     742.223267       0.100000000    
    219        1      14      25     645.768433       5.000000000E-02
    220        1      17      21     716.703674       0.100000000    
    221        1      17      39     724.373474       7.500000000E-02
    222        1      18      13     681.000000       0.100000000    
    223        1      29      31     813.953308       5.000000000E-02
    224        1      22       1     623.307007       5.000000000E-02
    225        1      20      40     750.590393       0.100000000    
    226        1      13      19     694.525146       0.100000000    
    227        1      21      41     717.436401       7.500000000E-02
    228        1      33      15     859.099915       0.100000000    
    229        1      25      11     734.870117       5.000000000E-02
    230        1      29       8     689.267151       0.100000000    
    231        1      10      13     659.000000       0.100000000    
    232        1      10      22     645.657410       0.100000000    
    233        1      28      30     791.774902       3.750000000E-02
    234        1      21       9     705.000000       7.500000000E-02
    235        1      13      14     703.598694       0.100000000    
    236        1      24      32     779.000000       2.500000000E-02
    237        1      29      12     783.462158       0.100000000    
    238        1      27      42     776.587158       5.000000000E-02
    239        1      28      25     787.719177       3.750000000E-02
    240        1      20      21     756.152039       0.100000000    
    241        1      20      30     728.150818       5.000000000E-02
    242        1      20      39     781.251587       7.500000000E-02
    243        1      32      13     839.000000       0.100000000    
    244        1      13      18     699.781677       0.100000000    
    245        1      24      27     745.468201       2.500000000E-02
    246        1      33      14     841.000000       0.100000000    
    247        1      25      10     701.000000       5.000000000E-02
    248        1      17      24     687.921814       7.500000000E-02
    249        1      19      33     749.000000       5.000000000E-02
    250        1      19      42     683.764893       0.100000000    
    251        1      28      29     790.403015       3.750000000E-02
    252        1      20      34     768.158813       5.000000000E-02
    253        1      31      43     936.538696       0.100000000    
    254        1      21       8     701.690857       7.500000000E-02
    255        1      20      43     683.379272       0.100000000    
    256        1      13      13     681.892517       0.100000000    
    257        1      21      26     736.373535       3.750000000E-02
    258        1       5       9     611.000000       0.100000000    
    259        1      13      22     664.053467       0.100000000    
    260        1      24      31     778.648071       2.500000000E-02
    261        1      16      41     661.000000       0.100000000    
    262        1      28       6     682.175537       7.500000000E-02
    263        1      31      11     780.063843       0.100000000    
    264        1       9      11     625.756958       0.100000000    
    265        1      31      20     858.843811       0.100000000    
    266        1      20      29     728.224976       5.000000000E-02
    267        1      32      12     791.866577       0.100000000    
    268        1      13      17     734.181946       0.100000000    
    269        1      17       5     617.000000       0.100000000    
    270        1      15      35     653.000000       5.000000000E-02
    271        1      27       9     711.710083       5.000000000E-02
    272        1      19      14     723.592407       0.100000000    
    273        1      16      27     677.849304       5.000000000E-02
    274        1      27      27     754.120056       2.500000000E-02
    275        1      19      23     730.933899       0.100000000    
    276        1      27      36     821.547119       2.500000000E-02
    277        1      19      32     723.000000       5.000000000E-02
    278        1      28      10     738.259399       7.500000000E-02
    279        1      19      41     698.138184       0.100000000    
    280        1      20       6     641.173523       0.100000000    
    281        1      28      28     770.508850       3.750000000E-02
    282        1      12      11     637.000000       0.100000000    
    283        1      21       7     671.091919       7.500000000E-02
    284        1      24       3     639.562622       5.000000000E-02
    285        1      24      12     737.357056       5.000000000E-02
    286        1      13      12     651.722290       0.100000000    
    287        1       5       8     609.000000       0.100000000    
    288        1      15      21     704.045105       0.100000000    
    289        1      23      43     727.403503       5.000000000E-02
    290        1      16      13     675.230469       0.100000000    
 --------------------------------------------------------------------


 ---------------------------------------------------
  RCH NO.    LAYER    ROW     COL       RECHARGE    
 ---------------------------------------------------
     1         1       2       8     2.351890760E-07
     2         1       3       8     4.650264930E-07
     3         1       4       7     2.375201070E-08
     4         1       4       8     7.189785290E-07
     5         1       4      15     3.707624230E-07
     6         1       4      16     1.410711870E-07
     7         1       5       7     5.318014400E-09
     8         1       5       8     1.172054930E-06
     9         1       5       9     5.318034500E-07
     10        1       5      10     5.772466000E-08
     11        1       5      15     4.024826930E-07
     12        1       5      16     6.164677820E-07
     13        1       6       8     8.184254690E-07
     14        1       6       9     1.273148150E-06
     15        1       6      10     4.456384040E-07
     16        1       6      13     1.909307480E-07
     17        1       6      14     9.713063690E-08
     18        1       6      15     6.461110890E-08
     19        1       6      16     7.893685440E-07
     20        1       7       8     4.484060140E-07
     21        1       7       9     1.273148150E-06
     22        1       7      10     2.491453490E-07
     23        1       7      13     7.666149960E-07
     24        1       7      14     1.120044950E-07
     25        1       7      15     1.434984090E-07
     26        1       7      16     8.734277790E-07
     27        1       7      17     9.288929210E-08
     28        1       8       8     2.342454920E-07
     29        1       8       9     1.231068300E-06
     30        1       8      10     2.353430000E-08
     31        1       8      13     1.131324600E-06
     32        1       8      14     1.273148150E-06
     33        1       8      15     1.095302530E-06
     34        1       8      16     8.758358670E-07
     35        1       8      17     1.008172160E-06
     36        1       8      18     6.979834990E-08
     37        1       9       8     3.897049840E-07
     38        1       9       9     1.038372910E-06
     39        1       9      12     1.165187720E-07
     40        1       9      13     1.270019610E-06
     41        1       9      14     5.860835080E-07
     42        1       9      15     8.528505990E-07
     43        1       9      16     1.273148150E-06
     44        1       9      17     1.273148150E-06
     45        1       9      18     3.034718830E-07
     46        1      10       8     8.399515440E-07
     47        1      10       9     9.076079950E-07
     48        1      10      10     1.201127710E-08
     49        1      10      12     2.676620210E-07
     50        1      10      13     1.059754590E-06
     51        1      10      14     8.032808860E-07
     52        1      10      15     5.967742820E-07
     53        1      10      16     1.266583900E-06
     54        1      10      17     1.273148150E-06
     55        1      10      18     1.486109860E-07
     56        1      10      22     9.728712970E-10
     57        1      11       8     1.043129600E-06
     58        1      11       9     1.135492450E-06
     59        1      11      10     1.283721830E-07
     60        1      11      12     9.559516680E-07
     61        1      11      13     1.020125570E-06
     62        1      11      14     5.684659770E-07
     63        1      11      15     3.590779240E-07
     64        1      11      16     5.118075900E-07
     65        1      11      17     1.273148150E-06
     66        1      11      18     1.107078300E-06
     67        1      11      19     8.251771900E-07
     68        1      11      20     7.519630070E-07
     69        1      11      21     4.576901190E-07
     70        1      11      22     2.740668250E-07
     71        1      11      23     2.756642100E-07
     72        1      12       8     1.020002950E-06
     73        1      12       9     1.098099670E-06
     74        1      12      10     7.714393010E-08
     75        1      12      11     5.506989820E-07
     76        1      12      12     7.019867180E-07
     77        1      12      13     1.273148150E-06
     78        1      12      14     8.830444490E-07
     79        1      12      15     1.565013810E-07
     80        1      12      16     9.885033580E-09
     81        1      12      17     1.266573360E-06
     82        1      12      18     1.242117400E-06
     83        1      12      19     1.156099360E-06
     84        1      12      20     1.191613260E-06
     85        1      12      21     6.142258540E-07
     86        1      12      22     3.968377170E-07
     87        1      12      23     8.535091220E-07
     88        1      12      24     2.074737060E-07
     89        1      12      25     2.690469240E-07
     90        1      13       8     1.096021100E-06
     91        1      13       9     1.273148150E-06
     92        1      13      10     2.232698160E-07
     93        1      13      11     6.949787630E-07
     94        1      13      12     3.054441490E-07
     95        1      13      13     1.272814960E-06
     96        1      13      14     1.240213000E-06
     97        1      13      15     5.918216690E-07
     98        1      13      16     2.002955760E-07
     99        1      13      17     1.273148150E-06
    100        1      13      18     5.695489380E-07
    101        1      13      19     7.305515480E-07
    102        1      13      20     4.071683250E-07
    103        1      13      21     6.396675950E-07
    104        1      13      22     1.080271250E-06
    105        1      13      23     9.297020510E-07
    106        1      13      24     1.133747690E-06
    107        1      13      25     9.806535750E-07
    108        1      13      26     8.178405440E-08
    109        1      14       7     3.673622900E-08
    110        1      14       8     1.238518390E-06
    111        1      14       9     1.265291350E-06
    112        1      14      10     8.507030570E-08
    113        1      14      11     4.122978470E-07
    114        1      14      12     7.893621830E-07
    115        1      14      13     1.264097970E-06
    116        1      14      14     7.923568420E-07
    117        1      14      15     1.708983680E-08
    118        1      14      16     1.569472710E-07
    119        1      14      17     6.089454710E-07
    120        1      14      18     8.590325470E-07
    121        1      14      19     2.746907680E-08
    122        1      14      20     4.433005680E-08
    123        1      14      21     8.759564940E-07
    124        1      14      22     1.027756160E-06
    125        1      14      23     5.449407980E-07
    126        1      14      24     6.604559830E-07
    127        1      14      25     8.109248280E-07
    128        1      14      26     6.185347100E-07
    129        1      14      27     2.080035520E-07
    130        1      14      28     1.558178610E-08
    131        1      15       7     3.596580090E-07
    132        1      15       8     1.261271970E-06
    133        1      15       9     9.510096310E-07
    134        1      15      10     6.875720450E-07
    135        1      15      11     4.608617060E-07
    136        1      15      12     1.161895830E-06
    137        1      15      13     3.803738580E-07
    138        1      15      14     1.088274470E-08
    139        1      15      18     3.359630720E-07
    140        1      15      19     6.225378300E-07
    141        1      15      20     1.913226270E-07
    142        1      15      21     1.038519310E-06
    143        1      15      22     5.592472850E-07
    144        1      15      23     5.688492240E-07
    145        1      15      24     7.894186560E-07
    146        1      15      25     2.879305070E-07
    147        1      15      26     8.768366640E-07
    148        1      15      27     4.908784940E-07
    149        1      15      28     6.205869840E-07
    150        1      15      29     6.111175440E-07
    151        1      15      30     6.017230380E-07
    152        1      15      31     7.829250970E-07
    153        1      15      32     9.516430540E-07
    154        1      15      33     9.873177210E-07
    155        1      15      34     9.611575900E-07
    156        1      15      35     8.568958860E-07
    157        1      15      36     6.263726130E-07
    158        1      15      37     2.548995890E-07
    159        1      15      38     5.354982290E-09
    160        1      16       6     1.468356790E-07
    161        1      16       7     1.096284330E-06
    162        1      16       8     4.348642010E-07
    163        1      16       9     5.157664890E-07
    164        1      16      10     9.583104590E-07
    165        1      16      11     4.097493300E-08
    166        1      16      12     5.619781200E-07
    167        1      16      13     1.130579310E-06
    168        1      16      14     6.994142520E-07
    169        1      16      15     7.133909390E-07
    170        1      16      19     6.938827620E-07
    171        1      16      20     1.320750830E-07
    172        1      16      21     8.591656560E-07
    173        1      16      22     7.018952790E-07
    174        1      16      23     5.532650660E-07
    175        1      16      24     9.894106420E-07
    176        1      16      25     1.247627340E-06
    177        1      16      26     1.001237150E-06
    178        1      16      27     8.851296920E-07
    179        1      16      28     5.083299930E-07
    180        1      16      29     2.514361300E-07
    181        1      16      30     6.516774550E-07
    182        1      16      31     1.204404110E-06
    183        1      16      32     1.245995780E-06
    184        1      16      33     1.017441890E-06
    185        1      16      34     9.165147530E-07
    186        1      16      35     8.958662130E-07
    187        1      16      36     9.968783080E-07
    188        1      16      37     1.181533460E-06
    189        1      16      38     1.154945720E-06
    190        1      16      39     8.722232370E-07
    191        1      16      40     1.023846470E-06
    192        1      16      41     4.195518980E-07
    193        1      17       6     6.846323490E-07
    194        1      17       7     1.273148150E-06
    195        1      17       8     4.448226710E-07
    196        1      17       9     3.037173830E-07
    197        1      17      10     1.222854050E-06
    198        1      17      11     1.083268620E-08
    199        1      17      12     3.825609620E-07
    200        1      17      13     1.273148150E-06
    201        1      17      14     1.273148150E-06
    202        1      17      15     1.265121580E-06
    203        1      17      16     3.221060330E-07
    204        1      17      19     7.895067940E-07
    205        1      17      20     4.677252490E-07
    206        1      17      21     4.029863800E-07
    207        1      17      22     5.343074880E-07
    208        1      17      23     6.024034080E-07
    209        1      17      24     4.012560590E-07
    210        1      17      25     4.476044710E-07
    211        1      17      26     1.212233560E-06
    212        1      17      27     1.004790520E-06
    213        1      17      28     6.013264850E-07
    214        1      17      29     3.373883920E-07
    215        1      17      30     3.205963410E-07
    216        1      17      31     7.101536210E-07
    217        1      17      32     7.455848540E-07
    218        1      17      33     5.330586110E-07
    219        1      17      34     9.285293880E-08
    220        1      17      35     1.421683190E-07
    221        1      17      36     1.971400230E-07
    222        1      17      37     5.609807990E-07
    223        1      17      38     8.520873080E-07
    224        1      17      39     1.270705170E-06
    225        1      17      40     1.273148150E-06
    226        1      17      41     1.117273110E-06
    227        1      17      42     9.806648540E-08
    228        1      18       6     7.244683850E-07
    229        1      18       7     1.268984920E-06
    230        1      18       8     1.240053200E-06
    231        1      18       9     1.078537290E-06
    232        1      18      10     1.005696660E-06
    233        1      18      12     2.308319330E-07
    234        1      18      13     1.273148150E-06
    235        1      18      14     1.273148150E-06
    236        1      18      15     1.273148150E-06
    237        1      18      16     3.085328110E-07
    238        1      18      19     1.857105390E-07
    239        1      18      20     2.664724810E-07
    240        1      18      21     3.277618510E-07
    241        1      18      22     4.821512230E-07
    242        1      18      23     5.373680780E-07
    243        1      18      24     6.433921460E-07
    244        1      18      25     6.291763740E-07
    245        1      18      26     7.817746560E-07
    246        1      18      27     7.340781110E-07
    247        1      18      28     1.211825070E-06
    248        1      18      29     6.236868360E-07
    249        1      18      30     3.869324620E-07
    250        1      18      31     2.564783960E-07
    251        1      18      32     6.770672690E-07
    252        1      18      33     9.035805960E-07
    253        1      18      34     9.384276590E-07
    254        1      18      35     1.124620430E-06
    255        1      18      36     1.234153310E-06
    256        1      18      37     1.273148150E-06
    257        1      18      38     1.167341760E-06
    258        1      18      39     1.273148150E-06
    259        1      18      40     1.273148150E-06
    260        1      18      41     1.273148150E-06
    261        1      18      42     1.005447370E-06
    262        1      18      43     6.202454000E-08
    263        1      19       6     2.300020070E-07
    264        1      19       7     1.253890590E-06
    265        1      19       8     1.272747090E-06
    266        1      19       9     7.784060340E-07
    267        1      19      10     1.518342360E-07
    268        1      19      11     8.475575670E-08
    269        1      19      12     1.055383690E-06
    270        1      19      13     1.273148150E-06
    271        1      19      14     1.273148150E-06
    272        1      19      15     1.273148150E-06
    273        1      19      16     8.237673970E-07
    274        1      19      17     4.634351650E-10
    275        1      19      20     3.161706090E-07
    276        1      19      21     2.140196400E-07
    277        1      19      22     4.367710400E-07
    278        1      19      23     8.415184870E-07
    279        1      19      24     7.434162710E-07
    280        1      19      25     6.888855170E-07
    281        1      19      26     4.673568460E-07
    282        1      19      27     7.161764820E-07
    283        1      19      28     1.119931540E-06
    284        1      19      29     1.273148150E-06
    285        1      19      30     1.046370210E-06
    286        1      19      31     9.649505630E-07
    287        1      19      32     9.808090370E-07
    288        1      19      33     1.069527620E-06
    289        1      19      34     1.079845430E-06
    290        1      19      35     6.295734770E-07
    291        1      19      36     1.090836320E-06
    292        1      19      37     1.243663540E-06
    293        1      19      38     1.273148150E-06
    294        1      19      39     1.273148150E-06
    295        1      19      40     1.273148150E-06
    296        1      19      41     1.273148150E-06
    297        1      19      42     1.273148150E-06
    298        1      19      43     6.828754870E-07
    299        1      20       5     5.069907060E-09
    300        1      20       6     9.726511850E-07
    301        1      20       7     1.273148150E-06
    302        1      20       8     1.186583160E-06
    303        1      20       9     4.138138270E-07
    304        1      20      10     2.367353500E-08
    305        1      20      11     9.888797260E-07
    306        1      20      12     5.276573490E-07
    307        1      20      13     9.295521780E-07
    308        1      20      14     1.273148150E-06
    309        1      20      15     1.273148150E-06
    310        1      20      16     3.249027550E-07
    311        1      20      17     2.793976800E-07
    312        1      20      20     1.642445530E-07
    313        1      20      21     2.021401270E-07
    314        1      20      22     3.316452810E-07
    315        1      20      23     5.413916880E-07
    316        1      20      24     2.011795250E-07
    317        1      20      25     6.239439660E-07
    318        1      20      26     1.094727520E-06
    319        1      20      27     1.249530160E-06
    320        1      20      28     1.009181710E-06
    321        1      20      29     8.853217820E-07
    322        1      20      30     8.618238670E-07
    323        1      20      31     8.421311350E-07
    324        1      20      32     5.221429920E-07
    325        1      20      33     6.219726890E-07
    326        1      20      34     8.012309690E-07
    327        1      20      35     5.772747070E-07
    328        1      20      36     5.394088530E-07
    329        1      20      37     9.778011970E-07
    330        1      20      38     1.273148150E-06
    331        1      20      39     1.273148150E-06
    332        1      20      40     1.273148150E-06
    333        1      20      41     1.273148150E-06
    334        1      20      42     1.273148150E-06
    335        1      20      43     6.513356980E-07
    336        1      21       4     2.187878090E-07
    337        1      21       5     8.066126690E-07
    338        1      21       6     1.273148150E-06
    339        1      21       7     1.273148150E-06
    340        1      21       8     1.273148150E-06
    341        1      21       9     1.273148150E-06
    342        1      21      10     9.095243350E-07
    343        1      21      11     5.644008700E-07
    344        1      21      12     4.208304380E-10
    345        1      21      13     5.715653700E-07
    346        1      21      14     1.271340180E-06
    347        1      21      15     1.273148150E-06
    348        1      21      16     5.265107700E-07
    349        1      21      17     1.581725020E-07
    350        1      21      18     3.205172070E-09
    351        1      21      19     4.192177450E-07
    352        1      21      20     4.763213500E-08
    353        1      21      21     5.382485930E-07
    354        1      21      22     2.019842000E-07
    355        1      21      23     5.644952290E-07
    356        1      21      24     6.088216700E-08
    357        1      21      25     1.188160830E-06
    358        1      21      26     1.146046280E-06
    359        1      21      27     5.363906070E-07
    360        1      21      28     2.368241380E-07
    361        1      21      29     4.126793290E-07
    362        1      21      30     3.066646140E-07
    363        1      21      31     5.289059370E-07
    364        1      21      32     7.121546890E-07
    365        1      21      33     3.541778630E-07
    366        1      21      34     2.555241900E-07
    367        1      21      35     5.767713720E-07
    368        1      21      36     6.710028780E-07
    369        1      21      37     1.009047230E-06
    370        1      21      38     8.251904270E-07
    371        1      21      39     9.808271270E-07
    372        1      21      40     1.273148150E-06
    373        1      21      41     1.273148150E-06
    374        1      21      42     1.273148150E-06
    375        1      21      43     4.403187040E-07
    376        1      22       2     6.303557720E-08
    377        1      22       3     7.545003450E-07
    378        1      22       4     1.267428180E-06
    379        1      22       5     1.273148150E-06
    380        1      22       6     1.273148150E-06
    381        1      22       7     1.273148150E-06
    382        1      22       8     1.273148150E-06
    383        1      22       9     1.273148150E-06
    384        1      22      10     9.554254130E-07
    385        1      22      14     6.668112180E-07
    386        1      22      15     1.273148150E-06
    387        1      22      16     1.054125750E-06
    388        1      22      17     1.232415430E-08
    389        1      22      19     1.120498010E-06
    390        1      22      20     5.187173270E-07
    391        1      22      21     4.918791070E-07
    392        1      22      22     4.848920260E-07
    393        1      22      23     7.361333130E-07
    394        1      22      24     4.710739010E-07
    395        1      22      25     5.561884180E-07
    396        1      22      26     1.273148150E-06
    397        1      22      27     1.066027280E-06
    398        1      22      28     3.130032250E-07
    399        1      22      29     6.592667250E-08
    400        1      22      30     1.484767690E-07
    401        1      22      31     9.286443070E-08
    402        1      22      32     2.078538350E-07
    403        1      22      34     7.588223740E-08
    404        1      22      35     1.233029850E-06
    405        1      22      36     1.198454360E-06
    406        1      22      37     1.233033270E-06
    407        1      22      38     1.103962620E-06
    408        1      22      39     1.248515450E-06
    409        1      22      40     1.273148150E-06
    410        1      22      41     1.273148150E-06
    411        1      22      42     1.273148150E-06
    412        1      22      43     4.435447540E-07
    413        1      23       2     1.140267730E-07
    414        1      23       3     1.121751710E-06
    415        1      23       4     1.273148150E-06
    416        1      23       5     1.273148150E-06
    417        1      23       6     1.273148150E-06
    418        1      23       7     1.273148150E-06
    419        1      23       8     1.273148150E-06
    420        1      23       9     1.273148150E-06
    421        1      23      10     1.254121480E-06
    422        1      23      11     5.079351210E-07
    423        1      23      12     7.336986090E-07
    424        1      23      13     6.332364720E-08
    425        1      23      14     8.759375850E-09
    426        1      23      15     4.037544450E-07
    427        1      23      16     1.581230390E-07
    428        1      23      17     1.325431560E-07
    429        1      23      18     2.409228130E-07
    430        1      23      19     4.410428360E-07
    431        1      23      20     9.058669500E-07
    432        1      23      21     5.115527210E-07
    433        1      23      22     3.531404490E-07
    434        1      23      23     5.883385770E-07
    435        1      23      24     9.540533130E-07
    436        1      23      25     1.097589890E-06
    437        1      23      26     1.273148150E-06
    438        1      23      27     1.265553720E-06
    439        1      23      28     1.200416950E-06
    440        1      23      29     4.957662870E-07
    441        1      23      30     2.453441000E-07
    442        1      23      31     1.612905580E-07
    443        1      23      32     2.399548090E-07
    444        1      23      33     5.369890660E-07
    445        1      23      34     4.898222890E-07
    446        1      23      35     8.798053070E-07
    447        1      23      36     9.768384310E-07
    448        1      23      37     1.200827540E-06
    449        1      23      38     9.554853440E-07
    450        1      23      39     1.234383990E-06
    451        1      23      40     1.273148150E-06
    452        1      23      41     1.273148150E-06
    453        1      23      42     1.273148150E-06
    454        1      23      43     2.279309720E-07
    455        1      24       3     2.625855100E-07
    456        1      24       4     1.273148150E-06
    457        1      24       5     1.273148150E-06
    458        1      24       6     1.273148150E-06
    459        1      24       7     1.273148150E-06
    460        1      24       8     1.273148150E-06
    461        1      24       9     1.273148150E-06
    462        1      24      10     1.273148150E-06
    463        1      24      11     1.273148150E-06
    464        1      24      12     1.036569230E-06
    465        1      24      13     1.157166180E-07
    466        1      24      14     3.759045490E-07
    467        1      24      15     2.665856050E-07
    468        1      24      16     6.807293790E-07
    469        1      24      17     1.551196840E-07
    470        1      24      18     1.045517210E-06
    471        1      24      19     3.875930120E-07
    472        1      24      20     6.135621860E-07
    473        1      24      21     1.064745580E-06
    474        1      24      22     5.553282900E-07
    475        1      24      23     9.093621590E-08
    476        1      24      24     5.977043440E-07
    477        1      24      25     6.619973020E-07
    478        1      24      26     1.264593820E-06
    479        1      24      27     1.247853310E-06
    480        1      24      28     1.065457050E-06
    481        1      24      29     1.013346930E-06
    482        1      24      30     9.418960150E-07
    483        1      24      31     9.282937240E-07
    484        1      24      32     8.711942070E-07
    485        1      24      33     5.787024600E-07
[...]
   4   1.0000E+30  1.0000E+30  1.0000E+30  1.0000E+30  1.0000E+30  1.0000E+30   693.9       696.8       702.7       710.8    
        719.5       728.0       734.6       738.4       739.7       739.1      1.0000E+30  1.0000E+30  1.0000E+30  1.0000E+30
       1.0000E+30  1.0000E+30  1.0000E+30  1.0000E+30  1.0000E+30  1.0000E+30  1.0000E+30  1.0000E+30  1.0000E+30  1.0000E+30
       1.0000E+30  1.0000E+30  1.0000E+30  1.0000E+30  1.0000E+30  1.0000E+30  1.0000E+30  1.0000E+30  1.0000E+30  1.0000E+30
       1.0000E+30  1.0000E+30  1.0000E+30  1.0000E+30
   5   1.0000E+30  1.0000E+30  1.0000E+30  1.0000E+30  1.0000E+30  1.0000E+30   700.5       706.6       715.2       725.0    
        735.0       744.3       751.3       754.7       754.9       753.0      1.0000E+30  1.0000E+30  1.0000E+30  1.0000E+30
       1.0000E+30  1.0000E+30  1.0000E+30  1.0000E+30  1.0000E+30  1.0000E+30  1.0000E+30  1.0000E+30  1.0000E+30  1.0000E+30
       1.0000E+30  1.0000E+30  1.0000E+30  1.0000E+30  1.0000E+30  1.0000E+30  1.0000E+30  1.0000E+30  1.0000E+30  1.0000E+30
       1.0000E+30  1.0000E+30  1.0000E+30  1.0000E+30
   6   1.0000E+30  1.0000E+30  1.0000E+30  1.0000E+30  1.0000E+30  1.0000E+30   707.3       720.9       732.9       743.9    
        755.0       765.5       773.3       776.7       775.9       772.9      1.0000E+30  1.0000E+30  1.0000E+30  1.0000E+30
       1.0000E+30  1.0000E+30  1.0000E+30  1.0000E+30  1.0000E+30  1.0000E+30  1.0000E+30  1.0000E+30  1.0000E+30  1.0000E+30
       1.0000E+30  1.0000E+30  1.0000E+30  1.0000E+30  1.0000E+30  1.0000E+30  1.0000E+30  1.0000E+30  1.0000E+30  1.0000E+30
       1.0000E+30  1.0000E+30  1.0000E+30  1.0000E+30
   7   1.0000E+30  1.0000E+30  1.0000E+30  1.0000E+30  1.0000E+30  1.0000E+30  1.0000E+30   744.2       753.9       764.5    
        777.0       790.0       799.8       803.6       802.1       798.8       804.7      1.0000E+30  1.0000E+30  1.0000E+30
       1.0000E+30  1.0000E+30  1.0000E+30  1.0000E+30  1.0000E+30  1.0000E+30  1.0000E+30  1.0000E+30  1.0000E+30  1.0000E+30
       1.0000E+30  1.0000E+30  1.0000E+30  1.0000E+30  1.0000E+30  1.0000E+30  1.0000E+30  1.0000E+30  1.0000E+30  1.0000E+30
       1.0000E+30  1.0000E+30  1.0000E+30  1.0000E+30
   8   1.0000E+30  1.0000E+30  1.0000E+30  1.0000E+30  1.0000E+30  1.0000E+30  1.0000E+30   766.3       775.6       785.9    
        800.5       816.9       829.9       835.0       832.1       824.9       821.7       822.7      1.0000E+30  1.0000E+30
       1.0000E+30  1.0000E+30  1.0000E+30  1.0000E+30  1.0000E+30  1.0000E+30  1.0000E+30  1.0000E+30  1.0000E+30  1.0000E+30
       1.0000E+30  1.0000E+30  1.0000E+30  1.0000E+30  1.0000E+30  1.0000E+30  1.0000E+30  1.0000E+30  1.0000E+30  1.0000E+30
       1.0000E+30  1.0000E+30  1.0000E+30  1.0000E+30
   9   1.0000E+30  1.0000E+30  1.0000E+30  1.0000E+30  1.0000E+30  1.0000E+30  1.0000E+30   791.1       799.9       810.8    
        827.1       846.9       862.9       869.0       865.1       854.8       844.1       835.8      1.0000E+30  1.0000E+30
       1.0000E+30  1.0000E+30  1.0000E+30  1.0000E+30  1.0000E+30  1.0000E+30  1.0000E+30  1.0000E+30  1.0000E+30  1.0000E+30
       1.0000E+30  1.0000E+30  1.0000E+30  1.0000E+30  1.0000E+30  1.0000E+30  1.0000E+30  1.0000E+30  1.0000E+30  1.0000E+30
       1.0000E+30  1.0000E+30  1.0000E+30  1.0000E+30
  10   1.0000E+30  1.0000E+30  1.0000E+30  1.0000E+30  1.0000E+30  1.0000E+30   824.4       820.1       829.4       842.0    
        860.3       882.5       899.8       906.1       900.0       885.0       866.9       851.6      1.0000E+30  1.0000E+30
        776.6       770.5       765.9      1.0000E+30  1.0000E+30  1.0000E+30  1.0000E+30  1.0000E+30  1.0000E+30  1.0000E+30
       1.0000E+30  1.0000E+30  1.0000E+30  1.0000E+30  1.0000E+30  1.0000E+30  1.0000E+30  1.0000E+30  1.0000E+30  1.0000E+30
       1.0000E+30  1.0000E+30  1.0000E+30  1.0000E+30
  11   1.0000E+30  1.0000E+30  1.0000E+30  1.0000E+30  1.0000E+30  1.0000E+30   845.3       850.7       865.5       881.7    
        902.0       925.4       941.9       946.2       936.6       915.7       889.4       863.3       841.8       818.5    
        793.4       779.3       771.1       768.3       767.4      1.0000E+30  1.0000E+30  1.0000E+30  1.0000E+30  1.0000E+30
       1.0000E+30  1.0000E+30  1.0000E+30  1.0000E+30  1.0000E+30  1.0000E+30  1.0000E+30  1.0000E+30  1.0000E+30  1.0000E+30
       1.0000E+30  1.0000E+30  1.0000E+30  1.0000E+30
  12   1.0000E+30  1.0000E+30  1.0000E+30  1.0000E+30  1.0000E+30  1.0000E+30   878.5       889.1       910.1       931.3    
        953.1       976.1       990.3       991.3       977.1       950.4       916.9       884.3       857.2       832.8    
        810.0       792.7       781.2       775.3       773.1       772.7      1.0000E+30  1.0000E+30  1.0000E+30  1.0000E+30
       1.0000E+30  1.0000E+30  1.0000E+30  1.0000E+30  1.0000E+30  1.0000E+30  1.0000E+30  1.0000E+30  1.0000E+30  1.0000E+30
       1.0000E+30  1.0000E+30  1.0000E+30  1.0000E+30
  13   1.0000E+30  1.0000E+30  1.0000E+30  1.0000E+30  1.0000E+30  1.0000E+30   921.4       935.7       962.4       989.3    
        1014.       1035.       1047.       1043.       1023.       991.5       952.6       915.7       884.0       855.6    
        830.3       810.5       796.3       787.0       782.4       780.4      1.0000E+30  1.0000E+30  1.0000E+30  1.0000E+30
       1.0000E+30  1.0000E+30  1.0000E+30  1.0000E+30  1.0000E+30  1.0000E+30  1.0000E+30  1.0000E+30  1.0000E+30  1.0000E+30
       1.0000E+30  1.0000E+30  1.0000E+30  1.0000E+30
  14   1.0000E+30  1.0000E+30  1.0000E+30  1.0000E+30  1.0000E+30  1.0000E+30   972.9       990.2       1022.       1054.    
        1081.       1100.       1109.       1101.       1077.       1040.       997.9       957.2       920.3       886.0    
        855.9       832.3       813.6       800.3       793.1       789.1       786.9       785.2       784.2      1.0000E+30
       1.0000E+30  1.0000E+30  1.0000E+30   765.1       764.4       763.7      1.0000E+30  1.0000E+30  1.0000E+30  1.0000E+30
       1.0000E+30  1.0000E+30  1.0000E+30  1.0000E+30
  15   1.0000E+30  1.0000E+30  1.0000E+30  1.0000E+30  1.0000E+30  1.0000E+30   1033.       1055.       1091.       1125.    
        1152.       1170.       1176.       1166.       1138.       1097.       1051.       1005.       962.2       921.4    
        885.5       856.7       832.6       815.0       805.4       799.4       794.8       791.3       788.6       786.5    
        783.8       780.5       776.6       772.1       768.7       765.7       763.0       760.4       757.2       753.8    
        751.7      1.0000E+30  1.0000E+30  1.0000E+30
  16   1.0000E+30  1.0000E+30  1.0000E+30  1.0000E+30   1085.       1097.       1101.       1131.       1169.       1203.    
        1228.       1243.       1247.       1235.       1204.       1160.       1109.       1058.       1008.       959.5    
        917.2       883.4       854.3       833.2       821.5       813.9       808.0       803.4       799.7       796.5    
        793.3       789.8       785.8       781.5       777.1       773.0       769.1       765.7       761.9       757.8    
        755.2       754.9      1.0000E+30  1.0000E+30
  17   1.0000E+30  1.0000E+30   1073.       1089.       1109.       1139.       1173.       1214.       1253.       1286.    
        1309.       1320.       1321.       1306.       1273.       1224.       1169.       1112.       1055.       1000.    
        951.3       912.1       878.8       854.7       841.0       831.9       824.7       819.0       814.3       810.4    
        806.7       802.9       798.8       794.4       789.8       785.2       780.8       776.5       771.8       766.3    
        762.0       760.1      1.0000E+30  1.0000E+30
  18   1.0000E+30   1077.       1092.       1121.       1160.       1207.       1256.       1302.       1341.       1373.    
        1391.       1399.       1396.       1380.       1344.       1290.       1229.       1166.       1103.       1042.    
        987.8       943.4       906.4       879.8       864.2       853.6       844.7       837.7       832.0       827.2    
        823.2       819.4       815.4       811.1       806.6       801.9       797.2       792.5       786.7       779.7    
        773.2       769.6       770.2      1.0000E+30
  19    1080.       1096.       1132.       1178.       1232.       1288.       1344.       1392.       1434.       1463.    
        1477.       1482.       1474.       1454.       1416.       1357.       1290.       1222.       1154.       1087.    
        1028.       978.8       937.8       908.6       891.5       879.4       869.0       860.3       853.2       847.5    
        842.9       838.9       835.2       831.4       827.4       822.9       818.0       812.9       806.3       797.2    
        788.4       782.0       777.9       772.8    
  20    1100.       1131.       1185.       1247.       1311.       1375.       1435.       1488.       1528.       1553.    
        1565.       1566.       1553.       1528.       1487.       1425.       1352.       1280.       1207.       1136.    
        1072.       1019.       974.5       942.1       922.4       908.5       896.7       886.7       878.4       871.8    
        866.5       862.2       858.6       855.2       851.8       847.8       842.8       837.1       829.5       818.8    
        807.8       799.3       793.9      1.0000E+30
  21    1122.       1169.       1239.       1311.       1383.       1451.       1514.       1568.       1607.       1630.    
        1641.       1638.       1621.       1590.       1546.       1484.       1408.       1330.       1254.       1180.    
        1113.       1057.       1009.       974.2       952.8       937.8       924.3       912.9       903.6       896.1    
        890.2       885.6       881.9       878.6       875.5       872.1       867.6       861.8       853.5       841.6    
        828.5       817.7       810.0      1.0000E+30
  22    1131.       1197.       1282.       1359.       1435.       1505.       1569.       1624.       1662.       1686.    
        1695.       1689.       1668.       1634.       1586.       1523.       1447.       1367.       1288.       1212.    
        1143.       1085.       1035.       998.4       975.5       959.9       945.9       933.6       923.3       915.1    
        908.7       903.8       899.8       896.5       893.3       889.9       886.0       880.5       872.4       859.8    
        845.3       832.8       821.2      1.0000E+30
  23   1.0000E+30   1219.       1319.       1398.       1478.       1551.       1615.       1668.       1708.       1731.    
        1737.       1728.       1705.       1668.       1618.       1552.       1476.       1396.       1316.       1239.    
        1169.       1109.       1057.       1018.       994.5       978.1       963.7       950.8       939.9       931.0    
        924.1       918.8       914.6       911.1       907.9       904.6       900.9       895.9       887.9       875.4    
        860.7       846.8       829.2      1.0000E+30
  24   1.0000E+30  1.0000E+30   1361.       1437.       1520.       1595.       1659.       1712.       1750.       1771.    
        1775.       1765.       1740.       1702.       1650.       1582.       1504.       1424.       1343.       1266.    
        1195.       1134.       1080.       1039.       1014.       997.0       982.3       968.5       956.9       947.3    
        939.9       934.2       929.7       926.1       922.9       919.6       916.1       911.6       904.0       891.8    
        877.8       863.8       834.8      1.0000E+30
  25   1.0000E+30  1.0000E+30   1384.       1470.       1561.       1635.       1699.       1751.       1787.       1807.    
        1811.       1801.       1776.       1736.       1682.       1612.       1531.       1451.       1371.       1292.    
        1220.       1159.       1104.       1061.       1035.       1017.       1001.       987.3       974.9       964.7    
        956.6       950.3       945.5       941.5       938.1       934.8       931.4       927.4       920.5       909.1    
        896.3       885.6      1.0000E+30  1.0000E+30
  26   1.0000E+30  1.0000E+30  1.0000E+30   1499.       1602.       1672.       1734.       1784.       1819.       1840.    
        1847.       1837.       1812.       1770.       1714.       1642.       1558.       1477.       1397.       1318.    
        1246.       1184.       1128.       1084.       1056.       1037.       1021.       1007.       993.7       982.8    
        974.0       967.0       961.6       957.2       953.5       950.1       946.8       943.1       937.0       926.3    
        914.7       905.2      1.0000E+30  1.0000E+30
  27   1.0000E+30  1.0000E+30  1.0000E+30  1.0000E+30   1647.       1706.       1763.       1813.       1849.       1873.    
        1881.       1873.       1849.       1806.       1746.       1671.       1585.       1501.       1422.       1344.    
        1272.       1208.       1152.       1107.       1078.       1058.       1041.       1027.       1013.       1001.    
        991.6       983.8       977.7       972.9       968.8       965.4       962.0       958.3       952.7       943.1    
        932.1       923.5      1.0000E+30  1.0000E+30
  28   1.0000E+30  1.0000E+30  1.0000E+30  1.0000E+30   1681.       1742.       1795.       1847.       1886.       1911.    
        1923.       1918.       1896.       1853.       1790.       1709.       1618.       1530.       1451.       1375.    
        1303.       1239.       1181.       1136.       1107.       1085.       1067.       1051.       1037.       1025.    
        1014.       1005.       998.4       992.8       988.3       984.4       980.7       977.0       971.8       962.9    
        952.8       946.0      1.0000E+30  1.0000E+30
  29   1.0000E+30  1.0000E+30  1.0000E+30  1.0000E+30  1.0000E+30   1789.       1827.       1888.       1931.       1959.    
        1971.       1969.       1953.       1914.       1849.       1762.       1664.       1569.       1488.       1413.    
        1343.       1280.       1222.       1176.       1147.       1125.       1105.       1087.       1072.       1058.    
        1046.       1036.       1027.       1021.       1015.       1010.       1006.       1002.       997.1       988.7    
        980.6       976.3      1.0000E+30  1.0000E+30
  30   1.0000E+30  1.0000E+30  1.0000E+30  1.0000E+30  1.0000E+30  1.0000E+30  1.0000E+30   1939.       1976.       2000.    
        2011.       2010.       1992.       1955.       1896.       1811.       1709.       1610.       1525.       1451.    
        1383.       1321.       1264.       1218.       1188.       1166.       1145.       1126.       1109.       1094.    
        1080.       1068.       1058.       1049.       1042.       1036.       1031.       1027.       1021.       1013.    
        1007.       1007.       1021.      1.0000E+30
  31   1.0000E+30  1.0000E+30  1.0000E+30  1.0000E+30  1.0000E+30  1.0000E+30  1.0000E+30  1.0000E+30   2011.       2030.    
        2039.       2036.       2016.       1980.       1922.       1838.       1742.       1645.       1556.       1481.    
        1415.       1355.       1299.       1254.       1223.       1200.       1179.       1158.       1140.       1123.    
        1108.       1095.       1084.       1073.       1065.       1057.       1051.       1046.       1040.       1033.    
        1026.       1025.       1032.       1039.    
  32   1.0000E+30  1.0000E+30  1.0000E+30  1.0000E+30  1.0000E+30  1.0000E+30  1.0000E+30  1.0000E+30  1.0000E+30   2048.    
        2052.       2049.       2030.       1989.       1934.       1857.       1764.       1671.       1583.       1505.    
        1438.       1379.       1326.       1281.       1251.       1228.       1205.       1185.       1165.       1146.    
        1130.       1115.       1102.       1091.       1081.       1072.       1065.       1059.       1051.       1044.    
        1037.       1035.       1039.       1041.    
  33   1.0000E+30  1.0000E+30  1.0000E+30  1.0000E+30  1.0000E+30  1.0000E+30  1.0000E+30  1.0000E+30  1.0000E+30  1.0000E+30
        2058.       2051.       2030.       1982.       1930.       1863.       1777.       1686.       1600.       1521.    
        1454.       1398.       1346.       1302.       1272.       1248.       1225.       1203.       1182.       1163.    
        1146.       1130.       1116.       1101.       1090.       1081.       1071.       1063.       1053.       1044.    
        1039.       1037.      1.0000E+30  1.0000E+30
  34   1.0000E+30  1.0000E+30  1.0000E+30  1.0000E+30  1.0000E+30  1.0000E+30  1.0000E+30  1.0000E+30  1.0000E+30  1.0000E+30
       1.0000E+30  1.0000E+30  1.0000E+30   1950.       1911.       1859.       1782.       1690.       1601.       1519.    
        1455.       1406.       1358.       1316.       1286.       1262.       1238.       1213.       1189.       1169.    
        1153.       1140.       1133.      1.0000E+30  1.0000E+30  1.0000E+30  1.0000E+30  1.0000E+30  1.0000E+30  1.0000E+30
       1.0000E+30  1.0000E+30  1.0000E+30  1.0000E+30
  35   1.0000E+30  1.0000E+30  1.0000E+30  1.0000E+30  1.0000E+30  1.0000E+30  1.0000E+30  1.0000E+30  1.0000E+30  1.0000E+30
       1.0000E+30  1.0000E+30  1.0000E+30  1.0000E+30   1885.       1850.       1781.       1689.       1593.       1510.    
        1450.       1414.      1.0000E+30  1.0000E+30  1.0000E+30  1.0000E+30  1.0000E+30  1.0000E+30  1.0000E+30  1.0000E+30
       1.0000E+30  1.0000E+30  1.0000E+30  1.0000E+30  1.0000E+30  1.0000E+30  1.0000E+30  1.0000E+30  1.0000E+30  1.0000E+30
       1.0000E+30  1.0000E+30  1.0000E+30  1.0000E+30

 HEAD WILL BE SAVED ON UNIT 1015 AT END OF TIME STEP    1, STRESS PERIOD    1


  VOLUME BUDGET FOR ENTIRE MODEL AT END OF TIME STEP    1, STRESS PERIOD   1
  ---------------------------------------------------------------------------------------------------

     CUMULATIVE VOLUME      L**3       RATES FOR THIS TIME STEP      L**3/T          PACKAGE NAME    
     ------------------                 ------------------------                     ----------------

           IN:                                      IN:
           ---                                      ---
                 DRN =           0.0000                   DRN =           0.0000     DRN             
                 RCH =           3.7772                   RCH =           3.7772     RCH             
                 CHD =       2.3204E-04                   CHD =       2.3204E-04     CHD             

            TOTAL IN =           3.7775              TOTAL IN =           3.7775

          OUT:                                     OUT:
          ----                                     ----
                 DRN =           2.4497                   DRN =           2.4497     DRN             
                 RCH =           0.0000                   RCH =           0.0000     RCH             
                 CHD =           1.3278                   CHD =           1.3278     CHD             

           TOTAL OUT =           3.7775             TOTAL OUT =           3.7775

            IN - OUT =       3.9330E-07              IN - OUT =       3.9330E-07

 PERCENT DISCREPANCY =           0.00     PERCENT DISCREPANCY =           0.00




         TIME SUMMARY AT END OF TIME STEP    1 IN STRESS PERIOD    1
                    SECONDS     MINUTES      HOURS       DAYS        YEARS
                    -----------------------------------------------------------
   TIME STEP LENGTH  1.0000     1.66667E-02 2.77778E-04 1.15741E-05 3.16881E-08
 STRESS PERIOD TIME  1.0000     1.66667E-02 2.77778E-04 1.15741E-05 3.16881E-08
         TOTAL TIME  1.0000     1.66667E-02 2.77778E-04 1.15741E-05 3.16881E-08


end timestep

