                                   MODFLOW 6
                U.S. GEOLOGICAL SURVEY MODULAR HYDROLOGIC MODEL
                          GROUNDWATER FLOW MODEL (GWF)
                            VERSION 6.2.0 10/22/2020

   MODFLOW 6 compiled Oct 22 2020 09:26:42 with IFORT compiler (ver. 19.10.2)

This software has been approved for release by the U.S. Geological 
Survey (USGS). Although the software has been subjected to rigorous 
review, the USGS reserves the right to update the software as needed 
pursuant to further analysis and review. No warranty, expressed or 
implied, is made by the USGS or the U.S. Government as to the 
functionality of the software and related material nor shall the 
fact of release constitute any such warranty. Furthermore, the 
software is released on condition that neither the USGS nor the U.S. 
Government shall be held liable for any damages resulting from its 
authorized or unauthorized use. Also refer to the USGS Water 
Resources Software User Rights Notice for complete use, copyright, 
and distribution information.


System command used to initiate simulation:
C:\WRDAPP\mf6.2.0\bin\mf6

MODFLOW was compiled using uniform precision.

Real Variables
  KIND: 8
  TINY (smallest non-zero value):    2.225074-308
  HUGE (largest value):    1.797693+308
  PRECISION: 15
  BIT SIZE: 64

Integer Variables
  KIND: 4
  HUGE (largest value): 2147483647
  BIT SIZE: 32

Long Integer Variables
  KIND: 8
  HUGE (largest value): 9223372036854775807
  BIT SIZE: 64

Logical Variables
  KIND: 4
  BIT SIZE: 32
 

 OPENED modelo_Norte.oc
 FILE TYPE:OC6                    UNIT 1005   STATUS:OLD                 
 FORMAT:FORMATTED              ACCESS:SEQUENTIAL          
 ACTION:READ                


 OPENED modelo_Norte.npf
 FILE TYPE:NPF6                   UNIT 1006   STATUS:OLD                 
 FORMAT:FORMATTED              ACCESS:SEQUENTIAL          
 ACTION:READ                


 OPENED modelo_Norte.ic
 FILE TYPE:IC6                    UNIT 1007   STATUS:OLD                 
 FORMAT:FORMATTED              ACCESS:SEQUENTIAL          
 ACTION:READ                


 OPENED modelo_Norte.drn
 FILE TYPE:DRN6                   UNIT 1008   STATUS:OLD                 
 FORMAT:FORMATTED              ACCESS:SEQUENTIAL          
 ACTION:READ                


 OPENED modelo_Norte.rch
 FILE TYPE:RCH6                   UNIT 1009   STATUS:OLD                 
 FORMAT:FORMATTED              ACCESS:SEQUENTIAL          
 ACTION:READ                


 OPENED modelo_Norte.dis
 FILE TYPE:DIS6                   UNIT 1010   STATUS:OLD                 
 FORMAT:FORMATTED              ACCESS:SEQUENTIAL          
 ACTION:READ                


 OPENED modelo_Norte.chd
 FILE TYPE:CHD6                   UNIT 1011   STATUS:OLD                 
 FORMAT:FORMATTED              ACCESS:SEQUENTIAL          
 ACTION:READ                


 DIS -- STRUCTURED GRID DISCRETIZATION PACKAGE, VERSION 2 : 3/27/2014 - INPUT READ FROM UNIT 1010


 # File generated by Flopy version 3.3.2 on 05/27/2021 at 10:50:17.
 PROCESSING DISCRETIZATION OPTIONS
    XORIGIN SPECIFIED AS     1102385.12000000    
    YORIGIN SPECIFIED AS     1281362.22000000    
 END OF DISCRETIZATION OPTIONS
 MODEL LENGTH UNIT IS UNDEFINED
 PROCESSING DISCRETIZATION DIMENSIONS
    NLAY =       6
    NROW =      35
    NCOL =      44
 END OF DISCRETIZATION DIMENSIONS
 PROCESSING GRIDDATA
 END PROCESSING GRIDDATA

 THE SPECIFIED IDOMAIN RESULTS IN A REDUCED NUMBER OF CELLS.
 NUMBER OF USER NODES: 9240
 NUMBER OF NODES IN SOLUTION: 5664



 NPF -- NODE PROPERTY FLOW PACKAGE, VERSION 1, 3/30/2015 INPUT READ FROM UNIT 1006


 # File generated by Flopy version 3.3.2 on 05/27/2021 at 10:50:18.
 PROCESSING NPF OPTIONS
    CELL-BY-CELL FLOW INFORMATION WILL BE SAVED TO BINARY FILE WHENEVER ICBCFL IS NOT ZERO.
 END OF NPF OPTIONS

 DRN   -- DRN PACKAGE, VERSION 8, 2/22/2014 INPUT READ FROM UNIT 1008
 # File generated by Flopy version 3.3.2 on 05/27/2021 at 10:50:17.

 PROCESSING DRN OPTIONS
    LISTS OF DRN CELLS WILL BE PRINTED.
    DRN FLOWS WILL BE PRINTED TO LISTING FILE.
    FLOWS WILL BE SAVED TO BUDGET FILE SPECIFIED IN OUTPUT CONTROL
 END OF DRN OPTIONS

 PROCESSING DRN DIMENSIONS
    MAXBOUND =     290
 END OF DRN DIMENSIONS

 RCH   -- RCH PACKAGE, VERSION 8, 2/22/2014 INPUT READ FROM UNIT 1009
 # File generated by Flopy version 3.3.2 on 05/27/2021 at 10:50:17.

 PROCESSING RCH OPTIONS
    LISTS OF RCH CELLS WILL BE PRINTED.
    RCH FLOWS WILL BE PRINTED TO LISTING FILE.
    FLOWS WILL BE SAVED TO BUDGET FILE SPECIFIED IN OUTPUT CONTROL
 END OF RCH OPTIONS

 PROCESSING RCH DIMENSIONS
    MAXBOUND =     839
 END OF RCH DIMENSIONS

 CHD   -- CHD PACKAGE, VERSION 8, 2/22/2014 INPUT READ FROM UNIT 1011
 # File generated by Flopy version 3.3.2 on 05/27/2021 at 10:50:18.

 PROCESSING CHD OPTIONS
    LISTS OF CHD CELLS WILL BE PRINTED.
    CHD FLOWS WILL BE PRINTED TO LISTING FILE.
    FLOWS WILL BE SAVED TO BUDGET FILE SPECIFIED IN OUTPUT CONTROL
 END OF CHD OPTIONS

 PROCESSING CHD DIMENSIONS
    MAXBOUND =     136
 END OF CHD DIMENSIONS

 IC -- INITIAL CONDITIONS PACKAGE, VERSION 8, 3/28/2015 INPUT READ FROM UNIT 1007
 # File generated by Flopy version 3.3.2 on 05/27/2021 at 10:50:17.
 PROCESSING GRIDDATA
 END PROCESSING GRIDDATA
 PROCESSING GRIDDATA

                ICELLTYPE = 1

                        K =  0.1000000E-05
 K33 not provided.  Assuming K33 = K.
 K22 not provided.  Assuming K22 = K.
 END PROCESSING GRIDDATA

 CELL CONVERSIONS FOR ITER.=0  STEP=0  PERIOD=0   (NODE or LRC)
     DRY             (1,2,8) DRY             (1,3,7) DRY             (1,4,7) DRY             (1,5,7) DRY            (1,7,13)
     DRY            (1,7,14) DRY            (1,8,13) DRY            (1,8,14) DRY            (1,8,15) DRY            (1,9,13)
     DRY            (1,9,14) DRY            (1,9,15) DRY            (1,10,7) DRY           (1,10,12) DRY           (1,10,13)
     DRY           (1,10,14) DRY           (1,10,15) DRY            (1,11,7) DRY           (1,11,12) DRY           (1,11,13)
     DRY           (1,11,14) DRY           (1,11,15) DRY           (1,11,16) DRY           (1,12,12) DRY           (1,12,13)
     DRY           (1,12,14) DRY           (1,12,15) DRY           (1,12,16) DRY            (1,13,7) DRY           (1,13,11)
     DRY           (1,13,12) DRY           (1,13,13) DRY           (1,13,14) DRY           (1,13,15) DRY           (1,13,16)
     DRY           (1,14,10) DRY           (1,14,11) DRY           (1,14,12) DRY           (1,14,13) DRY           (1,14,14)
     DRY           (1,14,15) DRY           (1,14,16) DRY            (1,15,8) DRY           (1,15,10) DRY           (1,15,11)
     DRY           (1,15,12) DRY           (1,15,13) DRY           (1,15,14) DRY           (1,15,15) DRY           (1,15,16)
     DRY            (1,16,5) DRY            (1,16,8) DRY           (1,16,10) DRY           (1,16,11) DRY           (1,16,12)
     DRY           (1,16,13) DRY           (1,16,14) DRY           (1,16,15) DRY           (1,16,16) DRY           (1,16,17)
     DRY            (1,17,3) DRY            (1,17,4) DRY            (1,17,6) DRY            (1,17,7) DRY            (1,17,8)
     DRY           (1,17,10) DRY           (1,17,11) DRY           (1,17,12) DRY           (1,17,13) DRY           (1,17,14)
     DRY           (1,17,15) DRY           (1,17,16) DRY           (1,17,17) DRY            (1,18,2) DRY            (1,18,3)
     DRY            (1,18,4) DRY            (1,18,6) DRY            (1,18,7) DRY            (1,18,8) DRY            (1,18,9)
     DRY           (1,18,10) DRY           (1,18,11) DRY           (1,18,12) DRY           (1,18,13) DRY           (1,18,14)
     DRY           (1,18,15) DRY           (1,18,16) DRY           (1,18,17) DRY            (1,19,2) DRY            (1,19,3)
     DRY            (1,19,4) DRY            (1,19,5) DRY            (1,19,6) DRY            (1,19,7) DRY            (1,19,8)
     DRY            (1,19,9) DRY           (1,19,10) DRY           (1,19,11) DRY           (1,19,12) DRY           (1,19,13)
     DRY           (1,19,14) DRY           (1,19,15) DRY           (1,19,16) DRY           (1,19,17) DRY            (1,20,2)
     DRY            (1,20,3) DRY            (1,20,4) DRY            (1,20,5) DRY            (1,20,6) DRY            (1,20,7)
     DRY            (1,20,8) DRY            (1,20,9) DRY           (1,20,10) DRY           (1,20,11) DRY           (1,20,12)
     DRY           (1,20,13) DRY           (1,20,14) DRY           (1,20,15) DRY           (1,20,16) DRY           (1,20,17)
     DRY            (1,21,2) DRY            (1,21,3) DRY            (1,21,4) DRY            (1,21,5) DRY            (1,21,6)
     DRY            (1,21,7) DRY            (1,21,8) DRY            (1,21,9) DRY           (1,21,10) DRY           (1,21,11)
     DRY           (1,21,12) DRY           (1,21,13) DRY           (1,21,14) DRY           (1,21,15) DRY           (1,21,16)
     DRY           (1,21,17) DRY           (1,21,18) DRY            (1,22,2) DRY            (1,22,3) DRY            (1,22,4)
     DRY            (1,22,5) DRY            (1,22,6) DRY            (1,22,7) DRY            (1,22,8) DRY            (1,22,9)
     DRY           (1,22,10) DRY           (1,22,11) DRY           (1,22,12) DRY           (1,22,13) DRY           (1,22,14)
     DRY           (1,22,15) DRY           (1,22,16) DRY           (1,22,17) DRY           (1,22,18) DRY           (1,22,22)
     DRY            (1,23,2) DRY            (1,23,3) DRY            (1,23,4) DRY            (1,23,5) DRY            (1,23,6)
     DRY            (1,23,7) DRY            (1,23,8) DRY            (1,23,9) DRY           (1,23,10) DRY           (1,23,11)
     DRY           (1,23,12) DRY           (1,23,13) DRY           (1,23,14) DRY           (1,23,15) DRY           (1,23,16)
     DRY           (1,23,17) DRY           (1,23,18) DRY           (1,23,22) DRY            (1,24,3) DRY            (1,24,4)
     DRY            (1,24,5) DRY            (1,24,6) DRY            (1,24,7) DRY            (1,24,8) DRY            (1,24,9)
     DRY           (1,24,10) DRY           (1,24,11) DRY           (1,24,12) DRY           (1,24,13) DRY           (1,24,14)
     DRY           (1,24,15) DRY           (1,24,16) DRY           (1,24,17) DRY           (1,24,18) DRY           (1,24,19)
     DRY           (1,24,22) DRY           (1,24,23) DRY            (1,25,3) DRY            (1,25,4) DRY            (1,25,5)
     DRY            (1,25,6) DRY            (1,25,7) DRY            (1,25,8) DRY            (1,25,9) DRY           (1,25,10)
     DRY           (1,25,11) DRY           (1,25,12) DRY           (1,25,13) DRY           (1,25,14) DRY           (1,25,15)
     DRY           (1,25,16) DRY           (1,25,17) DRY           (1,25,18) DRY           (1,25,19) DRY           (1,25,20)
     DRY           (1,25,22) DRY           (1,25,23) DRY           (1,25,24) DRY           (1,25,29) DRY            (1,26,4)
     DRY            (1,26,5) DRY            (1,26,6) DRY            (1,26,7) DRY            (1,26,8) DRY            (1,26,9)
     DRY           (1,26,10) DRY           (1,26,11) DRY           (1,26,12) DRY           (1,26,13) DRY           (1,26,14)
     DRY           (1,26,15) DRY           (1,26,16) DRY           (1,26,17) DRY           (1,26,18) DRY           (1,26,19)
     DRY           (1,26,20) DRY           (1,26,21) DRY           (1,26,22) DRY           (1,26,23) DRY           (1,26,24)
     DRY           (1,26,25) DRY           (1,26,28) DRY           (1,26,29) DRY            (1,27,5) DRY            (1,27,6)
     DRY            (1,27,7) DRY            (1,27,8) DRY            (1,27,9) DRY           (1,27,10) DRY           (1,27,11)
     DRY           (1,27,12) DRY           (1,27,13) DRY           (1,27,14) DRY           (1,27,15) DRY           (1,27,16)
     DRY           (1,27,17) DRY           (1,27,18) DRY           (1,27,19) DRY           (1,27,20) DRY           (1,27,21)
     DRY           (1,27,22) DRY           (1,27,23) DRY           (1,27,24) DRY           (1,27,25) DRY           (1,27,28)
     DRY           (1,27,29) DRY            (1,28,5) DRY            (1,28,6) DRY            (1,28,7) DRY            (1,28,8)
     DRY            (1,28,9) DRY           (1,28,10) DRY           (1,28,11) DRY           (1,28,12) DRY           (1,28,13)
     DRY           (1,28,14) DRY           (1,28,15) DRY           (1,28,16) DRY           (1,28,17) DRY           (1,28,18)
     DRY           (1,28,19) DRY           (1,28,20) DRY           (1,28,21) DRY           (1,28,22) DRY           (1,28,23)
     DRY           (1,28,24) DRY           (1,28,25) DRY           (1,28,26) DRY           (1,28,27) DRY           (1,28,28)
     DRY           (1,28,29) DRY           (1,28,39) DRY            (1,29,6) DRY            (1,29,7) DRY            (1,29,8)
     DRY            (1,29,9) DRY           (1,29,10) DRY           (1,29,11) DRY           (1,29,12) DRY           (1,29,13)
     DRY           (1,29,14) DRY           (1,29,15) DRY           (1,29,16) DRY           (1,29,17) DRY           (1,29,18)
     DRY           (1,29,19) DRY           (1,29,20) DRY           (1,29,21) DRY           (1,29,22) DRY           (1,29,23)
     DRY           (1,29,24) DRY           (1,29,25) DRY           (1,29,26) DRY           (1,29,27) DRY           (1,29,28)
     DRY           (1,29,29) DRY           (1,29,30) DRY           (1,29,31) DRY           (1,29,32) DRY           (1,29,37)
     DRY           (1,29,38) DRY           (1,29,39) DRY           (1,29,40) DRY           (1,29,41) DRY           (1,29,42)
     DRY            (1,30,8) DRY            (1,30,9) DRY           (1,30,10) DRY           (1,30,11) DRY           (1,30,12)
     DRY           (1,30,13) DRY           (1,30,14) DRY           (1,30,15) DRY           (1,30,16) DRY           (1,30,17)
     DRY           (1,30,18) DRY           (1,30,19) DRY           (1,30,20) DRY           (1,30,21) DRY           (1,30,22)
     DRY           (1,30,23) DRY           (1,30,24) DRY           (1,30,25) DRY           (1,30,26) DRY           (1,30,27)
     DRY           (1,30,28) DRY           (1,30,29) DRY           (1,30,30) DRY           (1,30,31) DRY           (1,30,32)
     DRY           (1,30,33) DRY           (1,30,34) DRY           (1,30,36) DRY           (1,30,37) DRY           (1,30,38)
     DRY           (1,30,39) DRY           (1,30,40) DRY           (1,30,41) DRY           (1,30,42) DRY           (1,30,43)
     DRY            (1,31,9) DRY           (1,31,10) DRY           (1,31,11) DRY           (1,31,12) DRY           (1,31,13)
     DRY           (1,31,14) DRY           (1,31,15) DRY           (1,31,16) DRY           (1,31,17) DRY           (1,31,18)
     DRY           (1,31,19) DRY           (1,31,20) DRY           (1,31,21) DRY           (1,31,22) DRY           (1,31,23)
     DRY           (1,31,24) DRY           (1,31,25) DRY           (1,31,26) DRY           (1,31,27) DRY           (1,31,28)
     DRY           (1,31,29) DRY           (1,31,30) DRY           (1,31,31) DRY           (1,31,32) DRY           (1,31,33)
     DRY           (1,31,34) DRY           (1,31,35) DRY           (1,31,36) DRY           (1,31,37) DRY           (1,31,38)
     DRY           (1,31,39) DRY           (1,31,40) DRY           (1,31,41) DRY           (1,31,42) DRY           (1,31,43)
     DRY           (1,31,44) DRY           (1,32,10) DRY           (1,32,11) DRY           (1,32,12) DRY           (1,32,13)
     DRY           (1,32,14) DRY           (1,32,15) DRY           (1,32,16) DRY           (1,32,17) DRY           (1,32,18)
     DRY           (1,32,19) DRY           (1,32,20) DRY           (1,32,21) DRY           (1,32,22) DRY           (1,32,23)
     DRY           (1,32,24) DRY           (1,32,25) DRY           (1,32,26) DRY           (1,32,27) DRY           (1,32,28)
     DRY           (1,32,29) DRY           (1,32,30) DRY           (1,32,31) DRY           (1,32,32) DRY           (1,32,33)
     DRY           (1,32,34) DRY           (1,32,35) DRY           (1,32,36) DRY           (1,32,37) DRY           (1,32,38)
     DRY           (1,32,39) DRY           (1,32,40) DRY           (1,32,41) DRY           (1,32,42) DRY           (1,32,43)
     DRY           (1,32,44) DRY           (1,33,11) DRY           (1,33,12) DRY           (1,33,13) DRY           (1,33,14)
     DRY           (1,33,15) DRY           (1,33,16) DRY           (1,33,17) DRY           (1,33,18) DRY           (1,33,19)
     DRY           (1,33,20) DRY           (1,33,21) DRY           (1,33,22) DRY           (1,33,23) DRY           (1,33,24)
     DRY           (1,33,25) DRY           (1,33,26) DRY           (1,33,27) DRY           (1,33,28) DRY           (1,33,29)
     DRY           (1,33,30) DRY           (1,33,31) DRY           (1,33,32) DRY           (1,33,33) DRY           (1,33,34)
     DRY           (1,33,35) DRY           (1,33,36) DRY           (1,33,37) DRY           (1,33,38) DRY           (1,33,39)
     DRY           (1,33,40) DRY           (1,33,41) DRY           (1,33,42) DRY           (1,34,14) DRY           (1,34,15)
     DRY           (1,34,16) DRY           (1,34,17) DRY           (1,34,18) DRY           (1,34,19) DRY           (1,34,20)
     DRY           (1,34,21) DRY           (1,34,22) DRY           (1,34,23) DRY           (1,34,24) DRY           (1,34,25)
     DRY           (1,34,26) DRY           (1,34,27) DRY           (1,34,28) DRY           (1,34,29) DRY           (1,34,30)
     DRY           (1,34,31) DRY           (1,34,32) DRY           (1,34,33) DRY           (1,35,15) DRY           (1,35,16)
     DRY           (1,35,17) DRY           (1,35,18) DRY           (1,35,19) DRY           (1,35,20) DRY           (1,35,21)
     DRY           (1,35,22) DRY             (2,2,8) DRY             (2,3,7) DRY             (2,4,7) DRY             (2,5,7)
     DRY            (2,7,14) DRY            (2,8,13) DRY            (2,8,14) DRY            (2,9,13) DRY            (2,9,14)
     DRY            (2,9,15) DRY            (2,10,7) DRY           (2,10,12) DRY           (2,10,13) DRY           (2,10,14)
     DRY           (2,10,15) DRY            (2,11,7) DRY           (2,11,12) DRY           (2,11,13) DRY           (2,11,14)
     DRY           (2,11,15) DRY           (2,12,12) DRY           (2,12,13) DRY           (2,12,14) DRY           (2,12,15)
     DRY            (2,13,7) DRY           (2,13,11) DRY           (2,13,12) DRY           (2,13,13) DRY           (2,13,14)
     DRY           (2,13,15) DRY           (2,13,16) DRY           (2,14,10) DRY           (2,14,11) DRY           (2,14,12)
     DRY           (2,14,13) DRY           (2,14,14) DRY           (2,14,15) DRY           (2,14,16) DRY            (2,15,8)
     DRY           (2,15,10) DRY           (2,15,11) DRY           (2,15,12) DRY           (2,15,13) DRY           (2,15,14)
     DRY           (2,15,15) DRY           (2,15,16) DRY            (2,16,5) DRY            (2,16,8) DRY           (2,16,10)
     DRY           (2,16,11) DRY           (2,16,12) DRY           (2,16,13) DRY           (2,16,14) DRY           (2,16,15)
     DRY           (2,16,16) DRY            (2,17,3) DRY            (2,17,4) DRY            (2,17,6) DRY            (2,17,7)
     DRY            (2,17,8) DRY           (2,17,10) DRY           (2,17,11) DRY           (2,17,12) DRY           (2,17,13)
     DRY           (2,17,14) DRY           (2,17,15) DRY           (2,17,16) DRY           (2,17,17) DRY            (2,18,2)
     DRY            (2,18,3) DRY            (2,18,4) DRY            (2,18,6) DRY            (2,18,7) DRY            (2,18,8)
     DRY            (2,18,9) DRY           (2,18,10) DRY           (2,18,11) DRY           (2,18,12) DRY           (2,18,13)
     DRY           (2,18,14) DRY           (2,18,15) DRY           (2,18,16) DRY           (2,18,17) DRY            (2,19,2)
     DRY            (2,19,3) DRY            (2,19,4) DRY            (2,19,6) DRY            (2,19,7) DRY            (2,19,8)
     DRY            (2,19,9) DRY           (2,19,10) DRY           (2,19,11) DRY           (2,19,12) DRY           (2,19,13)
     DRY           (2,19,14) DRY           (2,19,15) DRY           (2,19,16) DRY           (2,19,17) DRY            (2,20,2)
     DRY            (2,20,3) DRY            (2,20,4) DRY            (2,20,5) DRY            (2,20,6) DRY            (2,20,7)
     DRY            (2,20,8) DRY            (2,20,9) DRY           (2,20,10) DRY           (2,20,11) DRY           (2,20,12)
     DRY           (2,20,13) DRY           (2,20,14) DRY           (2,20,15) DRY           (2,20,16) DRY           (2,20,17)
     DRY            (2,21,2) DRY            (2,21,3) DRY            (2,21,4) DRY            (2,21,5) DRY            (2,21,6)
     DRY            (2,21,7) DRY            (2,21,8) DRY            (2,21,9) DRY           (2,21,10) DRY           (2,21,11)
     DRY           (2,21,12) DRY           (2,21,13) DRY           (2,21,14) DRY           (2,21,15) DRY           (2,21,16)
     DRY           (2,21,17) DRY           (2,21,18) DRY            (2,22,2) DRY            (2,22,3) DRY            (2,22,4)
     DRY            (2,22,5) DRY            (2,22,6) DRY            (2,22,7) DRY            (2,22,8) DRY            (2,22,9)
     DRY           (2,22,10) DRY           (2,22,11) DRY           (2,22,12) DRY           (2,22,13) DRY           (2,22,14)
     DRY           (2,22,15) DRY           (2,22,16) DRY           (2,22,17) DRY           (2,22,18) DRY            (2,23,2)
     DRY            (2,23,3) DRY            (2,23,4) DRY            (2,23,5) DRY            (2,23,6) DRY            (2,23,7)
     DRY            (2,23,8) DRY            (2,23,9) DRY           (2,23,10) DRY           (2,23,11) DRY           (2,23,12)
     DRY           (2,23,13) DRY           (2,23,14) DRY           (2,23,15) DRY           (2,23,16) DRY           (2,23,17)
     DRY           (2,23,18) DRY            (2,24,3) DRY            (2,24,4) DRY            (2,24,5) DRY            (2,24,6)
     DRY            (2,24,7) DRY            (2,24,8) DRY            (2,24,9) DRY           (2,24,10) DRY           (2,24,11)
     DRY           (2,24,12) DRY           (2,24,13) DRY           (2,24,14) DRY           (2,24,15) DRY           (2,24,16)
     DRY           (2,24,17) DRY           (2,24,18) DRY            (2,25,3) DRY            (2,25,4) DRY            (2,25,5)
     DRY            (2,25,6) DRY            (2,25,7) DRY            (2,25,8) DRY            (2,25,9) DRY           (2,25,10)
     DRY           (2,25,11) DRY           (2,25,12) DRY           (2,25,13) DRY           (2,25,14) DRY           (2,25,15)
     DRY           (2,25,16) DRY           (2,25,17) DRY           (2,25,18) DRY           (2,25,22) DRY            (2,26,4)
     DRY            (2,26,5) DRY            (2,26,6) DRY            (2,26,7) DRY            (2,26,8) DRY            (2,26,9)
     DRY           (2,26,10) DRY           (2,26,11) DRY           (2,26,12) DRY           (2,26,13) DRY           (2,26,14)
     DRY           (2,26,15) DRY           (2,26,16) DRY           (2,26,17) DRY           (2,26,18) DRY           (2,26,19)
     DRY           (2,26,20) DRY           (2,26,21) DRY           (2,26,22) DRY           (2,26,23) DRY           (2,26,24)
     DRY           (2,26,29) DRY            (2,27,5) DRY            (2,27,6) DRY            (2,27,7) DRY            (2,27,8)
     DRY            (2,27,9) DRY           (2,27,10) DRY           (2,27,11) DRY           (2,27,12) DRY           (2,27,13)
     DRY           (2,27,14) DRY           (2,27,15) DRY           (2,27,16) DRY           (2,27,17) DRY           (2,27,18)
     DRY           (2,27,19) DRY           (2,27,20) DRY           (2,27,21) DRY           (2,27,22) DRY           (2,27,23)
     DRY           (2,27,24) DRY           (2,27,28) DRY           (2,27,29) DRY            (2,28,5) DRY            (2,28,6)
     DRY            (2,28,7) DRY            (2,28,8) DRY            (2,28,9) DRY           (2,28,10) DRY           (2,28,11)
     DRY           (2,28,12) DRY           (2,28,13) DRY           (2,28,14) DRY           (2,28,15) DRY           (2,28,16)
     DRY           (2,28,17) DRY           (2,28,18) DRY           (2,28,19) DRY           (2,28,20) DRY           (2,28,21)
     DRY           (2,28,22) DRY           (2,28,23) DRY           (2,28,24) DRY           (2,28,29) DRY           (2,28,39)
     DRY            (2,29,6) DRY            (2,29,7) DRY            (2,29,8) DRY            (2,29,9) DRY           (2,29,10)
     DRY           (2,29,11) DRY           (2,29,12) DRY           (2,29,13) DRY           (2,29,14) DRY           (2,29,15)
     DRY           (2,29,16) DRY           (2,29,17) DRY           (2,29,18) DRY           (2,29,19) DRY           (2,29,20)
     DRY           (2,29,22) DRY           (2,29,23) DRY           (2,29,24) DRY           (2,29,25) DRY           (2,29,26)
     DRY           (2,29,27) DRY           (2,29,28) DRY           (2,29,29) DRY           (2,29,30) DRY           (2,29,38)
     DRY           (2,29,39) DRY           (2,29,40) DRY           (2,29,41) DRY           (2,29,42) DRY            (2,30,8)
     DRY            (2,30,9) DRY           (2,30,10) DRY           (2,30,11) DRY           (2,30,12) DRY           (2,30,13)
     DRY           (2,30,14) DRY           (2,30,15) DRY           (2,30,16) DRY           (2,30,17) DRY           (2,30,18)
     DRY           (2,30,19) DRY           (2,30,20) DRY           (2,30,21) DRY           (2,30,22) DRY           (2,30,23)
     DRY           (2,30,24) DRY           (2,30,25) DRY           (2,30,26) DRY           (2,30,27) DRY           (2,30,28)
     DRY           (2,30,29) DRY           (2,30,30) DRY           (2,30,31) DRY           (2,30,32) DRY           (2,30,37)
     DRY           (2,30,38) DRY           (2,30,39) DRY           (2,30,40) DRY           (2,30,41) DRY           (2,30,42)
     DRY           (2,30,43) DRY            (2,31,9) DRY           (2,31,10) DRY           (2,31,11) DRY           (2,31,12)
     DRY           (2,31,13) DRY           (2,31,14) DRY           (2,31,15) DRY           (2,31,16) DRY           (2,31,17)
     DRY           (2,31,18) DRY           (2,31,19) DRY           (2,31,20) DRY           (2,31,21) DRY           (2,31,22)
     DRY           (2,31,23) DRY           (2,31,24) DRY           (2,31,25) DRY           (2,31,26) DRY           (2,31,27)
     DRY           (2,31,28) DRY           (2,31,29) DRY           (2,31,30) DRY           (2,31,31) DRY           (2,31,32)
     DRY           (2,31,33) DRY           (2,31,34) DRY           (2,31,35) DRY           (2,31,36) DRY           (2,31,37)
     DRY           (2,31,38) DRY           (2,31,39) DRY           (2,31,40) DRY           (2,31,41) DRY           (2,31,42)
     DRY           (2,31,43) DRY           (2,31,44) DRY           (2,32,10) DRY           (2,32,11) DRY           (2,32,12)
     DRY           (2,32,13) DRY           (2,32,14) DRY           (2,32,15) DRY           (2,32,16) DRY           (2,32,17)
     DRY           (2,32,18) DRY           (2,32,19) DRY           (2,32,20) DRY           (2,32,21) DRY           (2,32,22)
     DRY           (2,32,23) DRY           (2,32,24) DRY           (2,32,25) DRY           (2,32,26) DRY           (2,32,27)
     DRY           (2,32,28) DRY           (2,32,29) DRY           (2,32,30) DRY           (2,32,31) DRY           (2,32,32)
     DRY           (2,32,33) DRY           (2,32,34) DRY           (2,32,35) DRY           (2,32,36) DRY           (2,32,37)
     DRY           (2,32,38) DRY           (2,32,39) DRY           (2,32,40) DRY           (2,32,41) DRY           (2,32,42)
     DRY           (2,32,43) DRY           (2,32,44) DRY           (2,33,11) DRY           (2,33,12) DRY           (2,33,13)
     DRY           (2,33,14) DRY           (2,33,15) DRY           (2,33,16) DRY           (2,33,17) DRY           (2,33,18)
     DRY           (2,33,19) DRY           (2,33,20) DRY           (2,33,21) DRY           (2,33,22) DRY           (2,33,23)
     DRY           (2,33,24) DRY           (2,33,25) DRY           (2,33,26) DRY           (2,33,27) DRY           (2,33,28)
     DRY           (2,33,29) DRY           (2,33,30) DRY           (2,33,31) DRY           (2,33,32) DRY           (2,33,33)
     DRY           (2,33,34) DRY           (2,33,35) DRY           (2,33,36) DRY           (2,33,37) DRY           (2,33,38)
     DRY           (2,33,39) DRY           (2,33,40) DRY           (2,33,41) DRY           (2,33,42) DRY           (2,34,14)
     DRY           (2,34,15) DRY           (2,34,16) DRY           (2,34,17) DRY           (2,34,18) DRY           (2,34,19)
     DRY           (2,34,20) DRY           (2,34,21) DRY           (2,34,22) DRY           (2,34,23) DRY           (2,34,24)
     DRY           (2,34,25) DRY           (2,34,26) DRY           (2,34,27) DRY           (2,34,28) DRY           (2,34,29)
     DRY           (2,34,30) DRY           (2,34,31) DRY           (2,34,32) DRY           (2,34,33) DRY           (2,35,15)
     DRY           (2,35,16) DRY           (2,35,17) DRY           (2,35,18) DRY           (2,35,19) DRY           (2,35,20)
     DRY           (2,35,21) DRY           (2,35,22) DRY             (3,2,8) DRY             (3,3,7) DRY             (3,4,7)
     DRY            (3,8,13) DRY            (3,8,14) DRY            (3,9,13) DRY            (3,9,14) DRY            (3,9,15)
     DRY           (3,10,12) DRY           (3,10,13) DRY           (3,10,14) DRY           (3,10,15) DRY           (3,11,12)
     DRY           (3,11,13) DRY           (3,11,14) DRY           (3,11,15) DRY           (3,12,12) DRY           (3,12,13)
     DRY           (3,12,14) DRY           (3,12,15) DRY            (3,13,7) DRY           (3,13,11) DRY           (3,13,12)
     DRY           (3,13,13) DRY           (3,13,14) DRY           (3,13,15) DRY           (3,14,10) DRY           (3,14,11)
     DRY           (3,14,12) DRY           (3,14,13) DRY           (3,14,14) DRY           (3,14,15) DRY            (3,15,8)
     DRY           (3,15,10) DRY           (3,15,11) DRY           (3,15,12) DRY           (3,15,13) DRY           (3,15,14)
     DRY           (3,15,15) DRY            (3,16,5) DRY            (3,16,8) DRY           (3,16,10) DRY           (3,16,11)
     DRY           (3,16,12) DRY           (3,16,13) DRY           (3,16,14) DRY           (3,16,15) DRY            (3,17,3)
     DRY            (3,17,4) DRY            (3,17,7) DRY            (3,17,8) DRY           (3,17,10) DRY           (3,17,11)
     DRY           (3,17,12) DRY           (3,17,13) DRY           (3,17,14) DRY           (3,17,15) DRY           (3,17,16)
     DRY            (3,18,2) DRY            (3,18,3) DRY            (3,18,4) DRY            (3,18,6) DRY            (3,18,7)
     DRY            (3,18,8) DRY            (3,18,9) DRY           (3,18,10) DRY           (3,18,11) DRY           (3,18,12)
     DRY           (3,18,13) DRY           (3,18,14) DRY           (3,18,15) DRY           (3,18,16) DRY            (3,19,2)
     DRY            (3,19,3) DRY            (3,19,4) DRY            (3,19,6) DRY            (3,19,7) DRY            (3,19,8)
     DRY            (3,19,9) DRY           (3,19,10) DRY           (3,19,11) DRY           (3,19,12) DRY           (3,19,13)
     DRY           (3,19,14) DRY           (3,19,15) DRY           (3,19,16) DRY           (3,19,17) DRY            (3,20,2)
     DRY            (3,20,3) DRY            (3,20,4) DRY            (3,20,5) DRY            (3,20,6) DRY            (3,20,7)
     DRY            (3,20,8) DRY            (3,20,9) DRY           (3,20,10) DRY           (3,20,11) DRY           (3,20,12)
     DRY           (3,20,13) DRY           (3,20,14) DRY           (3,20,15) DRY           (3,20,16) DRY           (3,20,17)
     DRY            (3,21,2) DRY            (3,21,3) DRY            (3,21,4) DRY            (3,21,5) DRY            (3,21,6)
     DRY            (3,21,7) DRY            (3,21,8) DRY            (3,21,9) DRY           (3,21,10) DRY           (3,21,11)
     DRY           (3,21,12) DRY           (3,21,13) DRY           (3,21,14) DRY           (3,21,15) DRY           (3,21,16)
     DRY           (3,21,17) DRY            (3,22,2) DRY            (3,22,3) DRY            (3,22,4) DRY            (3,22,5)
     DRY            (3,22,6) DRY            (3,22,7) DRY            (3,22,8) DRY            (3,22,9) DRY           (3,22,10)
     DRY           (3,22,11) DRY           (3,22,12) DRY           (3,22,13) DRY           (3,22,14) DRY           (3,22,15)
     DRY           (3,22,16) DRY           (3,22,17) DRY            (3,23,2) DRY            (3,23,3) DRY            (3,23,4)
     DRY            (3,23,5) DRY            (3,23,6) DRY            (3,23,7) DRY            (3,23,8) DRY            (3,23,9)
     DRY           (3,23,10) DRY           (3,23,11) DRY           (3,23,12) DRY           (3,23,13) DRY           (3,23,14)
     DRY           (3,23,15) DRY           (3,23,16) DRY           (3,23,17) DRY            (3,24,3) DRY            (3,24,4)
     DRY            (3,24,5) DRY            (3,24,6) DRY            (3,24,7) DRY            (3,24,8) DRY            (3,24,9)
     DRY           (3,24,10) DRY           (3,24,11) DRY           (3,24,12) DRY           (3,24,13) DRY           (3,24,14)
     DRY           (3,24,15) DRY           (3,24,16) DRY           (3,24,17) DRY            (3,25,3) DRY            (3,25,4)
     DRY            (3,25,5) DRY            (3,25,6) DRY            (3,25,7) DRY            (3,25,8) DRY            (3,25,9)
     DRY           (3,25,10) DRY           (3,25,11) DRY           (3,25,12) DRY           (3,25,13) DRY           (3,25,14)
     DRY           (3,25,15) DRY           (3,25,16) DRY           (3,25,17) DRY            (3,26,4) DRY            (3,26,5)
     DRY            (3,26,6) DRY            (3,26,7) DRY            (3,26,8) DRY            (3,26,9) DRY           (3,26,10)
     DRY           (3,26,11) DRY           (3,26,12) DRY           (3,26,13) DRY           (3,26,14) DRY           (3,26,15)
     DRY           (3,26,16) DRY           (3,26,17) DRY            (3,27,5) DRY            (3,27,6) DRY            (3,27,7)
     DRY            (3,27,8) DRY            (3,27,9) DRY           (3,27,10) DRY           (3,27,11) DRY           (3,27,12)
     DRY           (3,27,13) DRY           (3,27,14) DRY           (3,27,15) DRY           (3,27,16) DRY           (3,27,17)
     DRY           (3,27,18) DRY            (3,28,5) DRY            (3,28,6) DRY            (3,28,7) DRY            (3,28,8)
     DRY            (3,28,9) DRY           (3,28,10) DRY           (3,28,11) DRY           (3,28,12) DRY           (3,28,13)
     DRY           (3,28,14) DRY           (3,28,15) DRY           (3,28,16) DRY           (3,28,17) DRY           (3,28,18)
     DRY            (3,29,6) DRY            (3,29,7) DRY            (3,29,8) DRY            (3,29,9) DRY           (3,29,10)
     DRY           (3,29,11) DRY           (3,29,12) DRY           (3,29,13) DRY           (3,29,14) DRY           (3,29,15)
     DRY           (3,29,16) DRY           (3,29,17) DRY           (3,29,18) DRY           (3,29,19) DRY           (3,29,26)
     DRY           (3,29,27) DRY           (3,29,28) DRY           (3,29,42) DRY            (3,30,8) DRY            (3,30,9)
     DRY           (3,30,10) DRY           (3,30,11) DRY           (3,30,12) DRY           (3,30,13) DRY           (3,30,14)
     DRY           (3,30,15) DRY           (3,30,16) DRY           (3,30,17) DRY           (3,30,18) DRY           (3,30,19)
     DRY           (3,30,23) DRY           (3,30,24) DRY           (3,30,25) DRY           (3,30,26) DRY           (3,30,27)
     DRY           (3,30,28) DRY           (3,30,29) DRY           (3,30,42) DRY           (3,30,43) DRY            (3,31,9)
     DRY           (3,31,10) DRY           (3,31,11) DRY           (3,31,12) DRY           (3,31,13) DRY           (3,31,14)
     DRY           (3,31,15) DRY           (3,31,16) DRY           (3,31,17) DRY           (3,31,18) DRY           (3,31,19)
     DRY           (3,31,20) DRY           (3,31,21) DRY           (3,31,22) DRY           (3,31,23) DRY           (3,31,24)
     DRY           (3,31,25) DRY           (3,31,26) DRY           (3,31,27) DRY           (3,31,28) DRY           (3,31,29)
     DRY           (3,31,30) DRY           (3,31,31) DRY           (3,31,40) DRY           (3,31,41) DRY           (3,31,42)
     DRY           (3,31,43) DRY           (3,32,10) DRY           (3,32,11) DRY           (3,32,12) DRY           (3,32,13)
     DRY           (3,32,14) DRY           (3,32,15) DRY           (3,32,16) DRY           (3,32,17) DRY           (3,32,18)
     DRY           (3,32,19) DRY           (3,32,20) DRY           (3,32,21) DRY           (3,32,22) DRY           (3,32,23)
     DRY           (3,32,24) DRY           (3,32,25) DRY           (3,32,26) DRY           (3,32,27) DRY           (3,32,28)
     DRY           (3,32,29) DRY           (3,32,30) DRY           (3,32,31) DRY           (3,32,32) DRY           (3,32,33)
     DRY           (3,32,34) DRY           (3,32,35) DRY           (3,32,36) DRY           (3,32,37) DRY           (3,32,38)
     DRY           (3,32,39) DRY           (3,32,40) DRY           (3,32,41) DRY           (3,32,42) DRY           (3,32,43)
     DRY           (3,32,44) DRY           (3,33,11) DRY           (3,33,12) DRY           (3,33,13) DRY           (3,33,14)
     DRY           (3,33,15) DRY           (3,33,16) DRY           (3,33,17) DRY           (3,33,18) DRY           (3,33,19)
     DRY           (3,33,20) DRY           (3,33,21) DRY           (3,33,22) DRY           (3,33,23) DRY           (3,33,24)
     DRY           (3,33,25) DRY           (3,33,26) DRY           (3,33,27) DRY           (3,33,28) DRY           (3,33,29)
     DRY           (3,33,30) DRY           (3,33,31) DRY           (3,33,32) DRY           (3,33,33) DRY           (3,33,34)
     DRY           (3,33,35) DRY           (3,33,36) DRY           (3,33,37) DRY           (3,33,38) DRY           (3,33,39)
     DRY           (3,33,40) DRY           (3,33,41) DRY           (3,33,42) DRY           (3,34,14) DRY           (3,34,15)
     DRY           (3,34,16) DRY           (3,34,17) DRY           (3,34,18) DRY           (3,34,19) DRY           (3,34,20)
     DRY           (3,34,21) DRY           (3,34,22) DRY           (3,34,23) DRY           (3,34,24) DRY           (3,34,25)
     DRY           (3,34,26) DRY           (3,34,27) DRY           (3,34,28) DRY           (3,34,29) DRY           (3,34,30)
     DRY           (3,34,31) DRY           (3,34,32) DRY           (3,34,33) DRY           (3,35,15) DRY           (3,35,16)
     DRY           (3,35,17) DRY           (3,35,18) DRY           (3,35,19) DRY           (3,35,20) DRY           (3,35,21)
     DRY           (3,35,22) DRY             (4,2,8) DRY             (4,3,7) DRY             (4,4,7) DRY            (4,8,13)
     DRY            (4,8,14) DRY            (4,9,13) DRY            (4,9,14) DRY            (4,9,15) DRY           (4,10,12)
     DRY           (4,10,13) DRY           (4,10,14) DRY           (4,10,15) DRY           (4,11,12) DRY           (4,11,13)
     DRY           (4,11,14) DRY           (4,11,15) DRY           (4,12,12) DRY           (4,12,13) DRY           (4,13,11)
     DRY           (4,13,12) DRY           (4,13,15) DRY           (4,14,10) DRY           (4,14,11) DRY           (4,14,12)
     DRY           (4,14,15) DRY            (4,15,8) DRY           (4,15,10) DRY           (4,15,11) DRY           (4,15,12)
     DRY           (4,15,15) DRY            (4,16,5) DRY            (4,16,8) DRY           (4,16,10) DRY           (4,16,11)
     DRY           (4,16,12) DRY           (4,16,14) DRY           (4,16,15) DRY            (4,17,3) DRY            (4,17,4)
     DRY            (4,17,7) DRY            (4,17,8) DRY           (4,17,11) DRY           (4,17,12) DRY           (4,17,13)
     DRY           (4,17,14) DRY           (4,17,15) DRY            (4,18,2) DRY            (4,18,3) DRY            (4,18,4)
     DRY            (4,18,6) DRY            (4,18,7) DRY            (4,18,8) DRY           (4,18,10) DRY           (4,18,11)
     DRY           (4,18,12) DRY           (4,18,13) DRY           (4,18,14) DRY           (4,18,15) DRY            (4,19,2)
     DRY            (4,19,3) DRY            (4,19,4) DRY            (4,19,6) DRY            (4,19,7) DRY            (4,19,8)
     DRY           (4,19,10) DRY           (4,19,11) DRY           (4,19,12) DRY           (4,19,13) DRY           (4,19,14)
     DRY           (4,19,15) DRY           (4,19,16) DRY            (4,20,2) DRY            (4,20,3) DRY            (4,20,4)
     DRY            (4,20,5) DRY            (4,20,6) DRY            (4,20,7) DRY            (4,20,8) DRY           (4,20,11)
     DRY           (4,20,12) DRY           (4,20,13) DRY           (4,20,14) DRY           (4,20,15) DRY           (4,20,16)
     DRY            (4,21,2) DRY            (4,21,3) DRY            (4,21,4) DRY            (4,21,5) DRY            (4,21,6)
     DRY            (4,21,7) DRY            (4,21,8) DRY           (4,21,11) DRY           (4,21,12) DRY           (4,21,13)
     DRY           (4,21,14) DRY           (4,21,15) DRY           (4,21,16) DRY            (4,22,2) DRY            (4,22,3)
     DRY            (4,22,4) DRY            (4,22,5) DRY            (4,22,6) DRY            (4,22,7) DRY            (4,22,8)
     DRY           (4,22,10) DRY           (4,22,11) DRY           (4,22,12) DRY           (4,22,13) DRY           (4,22,14)
     DRY           (4,22,15) DRY           (4,22,16) DRY            (4,23,2) DRY            (4,23,3) DRY            (4,23,4)
     DRY            (4,23,5) DRY            (4,23,6) DRY            (4,23,7) DRY            (4,23,8) DRY           (4,23,10)
     DRY           (4,23,11) DRY           (4,23,12) DRY           (4,23,13) DRY           (4,23,14) DRY           (4,23,15)
     DRY           (4,23,16) DRY            (4,24,3) DRY            (4,24,4) DRY            (4,24,5) DRY            (4,24,6)
     DRY            (4,24,7) DRY            (4,24,8) DRY           (4,24,10) DRY           (4,24,11) DRY           (4,24,12)
     DRY           (4,24,13) DRY           (4,24,14) DRY           (4,24,15) DRY           (4,24,16) DRY            (4,25,3)
     DRY            (4,25,4) DRY            (4,25,5) DRY            (4,25,6) DRY            (4,25,7) DRY            (4,25,8)
     DRY           (4,25,10) DRY           (4,25,11) DRY           (4,25,12) DRY           (4,25,13) DRY           (4,25,14)
     DRY           (4,25,15) DRY           (4,25,16) DRY           (4,25,17) DRY            (4,26,4) DRY            (4,26,5)
     DRY            (4,26,6) DRY            (4,26,7) DRY            (4,26,8) DRY           (4,26,10) DRY           (4,26,11)
     DRY           (4,26,12) DRY           (4,26,13) DRY           (4,26,14) DRY           (4,26,15) DRY           (4,26,16)
     DRY           (4,26,17) DRY            (4,27,5) DRY            (4,27,6) DRY            (4,27,7) DRY            (4,27,8)
     DRY            (4,27,9) DRY           (4,27,10) DRY           (4,27,11) DRY           (4,27,12) DRY           (4,27,13)
     DRY           (4,27,14) DRY           (4,27,15) DRY           (4,27,16) DRY           (4,27,17) DRY            (4,28,5)
     DRY            (4,28,6) DRY            (4,28,7) DRY            (4,28,8) DRY            (4,28,9) DRY           (4,28,10)
     DRY           (4,28,11) DRY           (4,28,12) DRY           (4,28,13) DRY           (4,28,14) DRY           (4,28,15)
     DRY           (4,28,16) DRY           (4,28,17) DRY            (4,29,6) DRY            (4,29,7) DRY            (4,29,8)
     DRY           (4,29,10) DRY           (4,29,11) DRY           (4,29,12) DRY           (4,29,13) DRY           (4,29,14)
     DRY           (4,29,15) DRY           (4,29,16) DRY           (4,29,17) DRY           (4,29,42) DRY            (4,30,8)
     DRY           (4,30,10) DRY           (4,30,11) DRY           (4,30,12) DRY           (4,30,13) DRY           (4,30,14)
     DRY           (4,30,15) DRY           (4,30,16) DRY           (4,30,17) DRY           (4,30,27) DRY           (4,30,28)
     DRY           (4,30,43) DRY            (4,31,9) DRY           (4,31,11) DRY           (4,31,12) DRY           (4,31,13)
     DRY           (4,31,14) DRY           (4,31,15) DRY           (4,31,16) DRY           (4,31,17) DRY           (4,31,24)
     DRY           (4,31,27) DRY           (4,31,28) DRY           (4,32,10) DRY           (4,32,11) DRY           (4,32,12)
     DRY           (4,32,13) DRY           (4,32,14) DRY           (4,32,15) DRY           (4,32,16) DRY           (4,32,17)
     DRY           (4,32,23) DRY           (4,32,24) DRY           (4,32,25) DRY           (4,32,26) DRY           (4,32,27)
     DRY           (4,32,28) DRY           (4,32,29) DRY           (4,33,11) DRY           (4,33,12) DRY           (4,33,13)
     DRY           (4,33,14) DRY           (4,33,15) DRY           (4,33,16) DRY           (4,33,17) DRY           (4,33,22)
     DRY           (4,33,23) DRY           (4,33,24) DRY           (4,33,25) DRY           (4,33,26) DRY           (4,33,27)
     DRY           (4,33,28) DRY           (4,33,29) DRY           (4,33,30) DRY           (4,33,40) DRY           (4,33,41)
     DRY           (4,33,42) DRY           (4,34,14) DRY           (4,34,15) DRY           (4,34,16) DRY           (4,34,17)
     DRY           (4,34,22) DRY           (4,34,23) DRY           (4,34,24) DRY           (4,34,25) DRY           (4,34,26)
     DRY           (4,34,27) DRY           (4,34,28) DRY           (4,34,29) DRY           (4,34,30) DRY           (4,34,31)
     DRY           (4,34,32) DRY           (4,34,33) DRY           (4,35,15) DRY           (4,35,16) DRY           (4,35,17)
     DRY           (4,35,20) DRY           (4,35,21) DRY           (4,35,22) DRY             (5,2,8) DRY             (5,3,7)
     DRY             (5,4,7) DRY            (5,8,14) DRY            (5,9,15) DRY            (5,16,5) DRY            (5,16,8)
     DRY           (5,16,11) DRY            (5,17,3) DRY            (5,17,4) DRY            (5,17,8) DRY           (5,17,11)
     DRY           (5,17,12) DRY           (5,17,13) DRY            (5,18,2) DRY            (5,18,7) DRY            (5,18,8)
     DRY           (5,18,11) DRY           (5,18,12) DRY           (5,18,13) DRY           (5,18,14) DRY            (5,19,6)
     DRY            (5,19,7) DRY            (5,19,8) DRY           (5,19,11) DRY           (5,19,12) DRY           (5,19,13)
     DRY           (5,19,14) DRY           (5,19,15) DRY            (5,20,6) DRY            (5,20,7) DRY            (5,20,8)
     DRY           (5,20,11) DRY           (5,20,12) DRY           (5,20,13) DRY           (5,20,14) DRY           (5,20,15)
     DRY            (5,21,6) DRY            (5,21,7) DRY            (5,21,8) DRY           (5,21,11) DRY           (5,21,12)
     DRY           (5,21,13) DRY           (5,21,14) DRY           (5,21,15) DRY            (5,22,4) DRY            (5,22,5)
     DRY            (5,22,6) DRY            (5,22,7) DRY            (5,22,8) DRY           (5,22,11) DRY           (5,22,12)
     DRY           (5,22,13) DRY           (5,22,14) DRY           (5,22,15) DRY            (5,23,2) DRY            (5,23,3)
     DRY            (5,23,4) DRY            (5,23,5) DRY            (5,23,6) DRY            (5,23,7) DRY            (5,23,8)
     DRY           (5,23,11) DRY           (5,23,12) DRY           (5,23,13) DRY           (5,23,14) DRY           (5,23,15)
     DRY            (5,24,3) DRY            (5,24,4) DRY            (5,24,5) DRY            (5,24,6) DRY            (5,24,7)
     DRY            (5,24,8) DRY           (5,24,11) DRY           (5,24,12) DRY           (5,24,13) DRY           (5,24,14)
     DRY           (5,24,15) DRY            (5,25,3) DRY            (5,25,4) DRY            (5,25,5) DRY            (5,25,6)
     DRY            (5,25,7) DRY            (5,25,8) DRY           (5,25,10) DRY           (5,25,11) DRY           (5,25,12)
     DRY           (5,25,13) DRY           (5,25,14) DRY           (5,25,15) DRY            (5,26,4) DRY            (5,26,5)
     DRY            (5,26,6) DRY            (5,26,7) DRY            (5,26,8) DRY           (5,26,10) DRY           (5,26,11)
     DRY           (5,26,12) DRY           (5,26,13) DRY           (5,26,14) DRY           (5,26,15) DRY            (5,27,5)
     DRY            (5,27,6) DRY            (5,27,7) DRY            (5,27,8) DRY           (5,27,10) DRY           (5,27,11)
     DRY           (5,27,12) DRY           (5,27,13) DRY           (5,27,14) DRY           (5,27,15) DRY            (5,28,5)
     DRY            (5,28,6) DRY            (5,28,7) DRY            (5,28,8) DRY           (5,28,10) DRY           (5,28,11)
     DRY           (5,28,12) DRY           (5,28,13) DRY           (5,28,14) DRY           (5,28,15) DRY            (5,29,6)
     DRY            (5,29,7) DRY            (5,29,8) DRY           (5,29,11) DRY           (5,29,12) DRY           (5,29,13)
     DRY           (5,29,14) DRY           (5,29,15) DRY           (5,29,42) DRY            (5,30,8) DRY           (5,30,11)
     DRY           (5,30,12) DRY           (5,30,13) DRY           (5,30,14) DRY           (5,30,15) DRY           (5,30,16)
     DRY           (5,30,43) DRY            (5,31,9) DRY           (5,31,11) DRY           (5,31,12) DRY           (5,31,13)
     DRY           (5,31,14) DRY           (5,31,15) DRY           (5,32,10) DRY           (5,32,11) DRY           (5,32,12)
     DRY           (5,32,13) DRY           (5,32,14) DRY           (5,32,15) DRY           (5,33,11) DRY           (5,33,12)
     DRY           (5,33,13) DRY           (5,33,14) DRY           (5,33,15) DRY           (5,33,40) DRY           (5,33,41)
     DRY           (5,33,42) DRY           (5,34,14) DRY           (5,34,15) DRY           (5,34,30) DRY           (5,34,31)
     DRY           (5,34,32) DRY           (5,34,33) DRY           (5,35,15) DRY           (5,35,20) DRY           (5,35,21)
     DRY           (5,35,22) DRY             (6,2,8) DRY             (6,3,7) DRY             (6,4,7) DRY            (6,16,5)
     DRY            (6,17,3) DRY            (6,17,4) DRY            (6,18,2) DRY           (6,18,12) DRY            (6,19,8)
     DRY           (6,19,12) DRY            (6,20,8) DRY            (6,21,7) DRY            (6,21,8) DRY            (6,22,7)
     DRY            (6,22,8) DRY           (6,22,11) DRY            (6,23,2) DRY            (6,23,6) DRY            (6,23,7)
     DRY            (6,23,8) DRY           (6,23,11) DRY            (6,24,3) DRY            (6,24,6) DRY            (6,24,7)
     DRY            (6,24,8) DRY           (6,24,11) DRY            (6,25,3) DRY            (6,25,6) DRY            (6,25,7)
     DRY            (6,25,8) DRY           (6,25,11) DRY            (6,26,4) DRY            (6,26,6) DRY            (6,26,7)
     DRY            (6,26,8) DRY           (6,26,11) DRY            (6,27,5) DRY            (6,27,6) DRY            (6,27,7)
     DRY            (6,27,8) DRY           (6,27,11) DRY            (6,28,5) DRY            (6,28,6) DRY            (6,28,7)
     DRY            (6,28,8) DRY            (6,29,6) DRY            (6,29,7) DRY            (6,29,8) DRY           (6,29,13)
     DRY           (6,29,42) DRY            (6,30,8) DRY           (6,30,11) DRY           (6,30,12) DRY           (6,30,13)
     DRY           (6,30,43) DRY            (6,31,9) DRY           (6,31,11) DRY           (6,31,12) DRY           (6,31,13)
     DRY           (6,32,10) DRY           (6,32,11) DRY           (6,32,12) DRY           (6,32,13) DRY           (6,33,11)
     DRY           (6,33,12) DRY           (6,33,13) DRY           (6,33,40) DRY           (6,33,41) DRY           (6,33,42)
     DRY           (6,34,14) DRY           (6,34,30) DRY           (6,34,31) DRY           (6,34,32) DRY           (6,34,33)
     DRY           (6,35,15) DRY           (6,35,20) DRY           (6,35,21) DRY           (6,35,22)
    BINARY GRID INFORMATION WILL BE WRITTEN TO:
      UNIT NUMBER: 1013
      FILE NAME: D:\OneDrive - UNIVERSIDAD INDUSTRIAL DE SANTANDER\Maestria\06_Tesis\01_Tesis_Dev\09_Python\data\modelo_Norte\modelo_Norte.dis.grb

 OPENED D:\OneDrive - UNIVERSIDAD INDUSTRIAL DE SANTANDER\Maestria\06_Tesis\01_Tesis_Dev\09_Python\data\modelo_Norte\modelo_Norte.dis.grb
 FILE TYPE:DATA(BINARY)   UNIT 1013   STATUS:REPLACE             
 FORMAT:UNFORMATTED            ACCESS:STREAM              
 ACTION:READWRITE           

      THE LAST TIME STEP WILL BE PRINTED
      THE LAST TIME STEP WILL BE PRINTED
 # File generated by Flopy version 3.3.2 on 05/27/2021 at 10:50:18.

 PROCESSING OC OPTIONS

    BUDGET INFORMATION WILL BE WRITTEN TO:
      UNIT NUMBER: 1014
      FILE NAME: modelo_Norte.cbb

 OPENED modelo_Norte.cbb
 FILE TYPE:DATA(BINARY)   UNIT 1014   STATUS:REPLACE             
 FORMAT:UNFORMATTED            ACCESS:STREAM              
 ACTION:READWRITE           

    HEAD INFORMATION WILL BE WRITTEN TO:
      UNIT NUMBER: 1015
      FILE NAME: modelo_Norte.hds

 OPENED modelo_Norte.hds
 FILE TYPE:DATA(BINARY)   UNIT 1015   STATUS:REPLACE             
 FORMAT:UNFORMATTED            ACCESS:STREAM              
 ACTION:READWRITE           

 END OF OC OPTIONS

start timestep kper="1" kstp="1" mode="normal"


 BEGIN READING OUTPUT CONTROL FOR STRESS PERIOD 1
      ALL TIME STEPS WILL BE SAVED
      ALL TIME STEPS WILL BE SAVED
      THE LAST TIME STEP WILL BE PRINTED

 END READING OUTPUT CONTROL FOR STRESS PERIOD 1
 --------------------------------------------------------------------
  DRN NO.    LAYER    ROW     COL      DRAIN EL.       CONDUCTANCE   
 --------------------------------------------------------------------
     1         1      16      40     664.425293       0.100000000    
     2         1      28       5     667.757690       7.500000000E-02
     3         1      31      10     751.700745       0.100000000    
     4         1       9      10     621.000000       0.100000000    
     5         1      30      42     856.928406       0.100000000    
     6         1      12      15     712.910828       0.100000000    
     7         1      26      26     751.973328       2.500000000E-02
     8         1      26      35     810.182068       2.500000000E-02
     9         1      23      29     767.000000       2.500000000E-02
     10        1      15      25     653.000000       5.000000000E-02
     11        1      27       8     681.000000       5.000000000E-02
     12        1      19      13     719.412598       0.100000000    
     13        1      16      26     669.289551       5.000000000E-02
     14        1      27      26     757.380005       2.500000000E-02
     15        1      19      31     716.213745       5.000000000E-02
     16        1      28       9     724.861938       7.500000000E-02
     17        1      30      28     820.360535       5.000000000E-02
     18        1      20       5     632.507568       0.100000000    
     19        1      31      14     825.285584       0.100000000    
     20        1      34      16     880.235474       0.100000000    
     21        1      11      23     640.039429       0.100000000    
     22        1      26      21     801.887451       5.000000000E-02
     23        1      16      12     673.573486       0.100000000    
     24        1      27      21     806.006592       5.000000000E-02
     25        1      18      40     739.135681       0.100000000    
     26        1      30      14     822.059326       0.100000000    
     27        1      30      41     876.212463       0.100000000    
     28        1      26       7     686.208923       5.000000000E-02
     29        1      11      18     640.265808       0.100000000    
     30        1      23      28     749.396667       2.500000000E-02
     31        1      15      24     659.000000       7.500000000E-02
     32        1      27       7     669.000000       5.000000000E-02
     33        1      30       9     731.490967       0.100000000    
     34        1      22      14     755.018311       5.000000000E-02
     35        1      22      41     734.254578       5.000000000E-02
     36        1      11      13     657.692261       0.100000000    
     37        1      34      15     829.692871       0.100000000    
     38        1      26      11     747.182861       5.000000000E-02
     39        1      11      22     639.737000       0.100000000    
     40        1      25      42     763.316101       5.000000000E-02
     41        1      17      38     727.000000       5.000000000E-02
     42        1      18      21     735.000000       0.100000000    
     43        1      29      21     830.456970       0.100000000    
     44        1      18      30     704.815735       5.000000000E-02
     45        1      18      39     759.341125       7.500000000E-02
     46        1      30      13     801.103088       0.100000000    
     47        1      22      27     751.606689       2.500000000E-02
     48        1      29       7     684.250000       0.100000000    
     49        1      29      16     894.805725       0.100000000    
     50        1      10      12     647.553711       0.100000000    
     51        1      18      25     711.216003       5.000000000E-02
     52        1      29      25     789.973999       5.000000000E-02
     53        1      10      21     642.199951       0.100000000    
     54        1      30       8     713.715759       0.100000000    
     55        1      26      10     723.000000       5.000000000E-02
     56        1      25      32     787.000000       2.500000000E-02
     57        1      17      28     685.358154       5.000000000E-02
     58        1      17      37     723.000000       5.000000000E-02
     59        1      29      11     749.000000       0.100000000    
     60        1      29      20     827.887085       0.100000000    
     61        1      18      29     703.000000       5.000000000E-02
     62        1      29      29     813.000000       5.000000000E-02
     63        1      18      38     763.000000       5.000000000E-02
     64        1      30      12     790.837036       0.100000000    
     65        1      28      42     800.190430       7.500000000E-02
     66        1      21      21     764.746460       7.500000000E-02
     67        1      24      26     747.265503       2.500000000E-02
     68        1      33      13     795.292908       0.100000000    
     69        1      25       9     703.389221       5.000000000E-02
     70        1      17      14     699.972656       0.100000000    
     71        1      25      27     751.206726       2.500000000E-02
     72        1      17      41     670.971924       0.100000000    
     73        1      29       6     683.436401       0.100000000    
     74        1      10      11     631.000000       0.100000000    
     75        1      18      24     707.047913       7.500000000E-02
     76        1      29      24     788.048523       7.500000000E-02
     77        1      20      33     753.950684       5.000000000E-02
     78        1      31      42     897.000000       0.100000000    
     79        1      20      42     691.060974       0.100000000    
     80        1      21      25     729.355896       3.750000000E-02
     81        1      13      21     676.025818       0.100000000    
     82        1      24      21     785.079102       5.000000000E-02
     83        1      24      30     777.605591       2.500000000E-02
     84        1      32      43     977.628906       0.100000000    
     85        1      21      43     696.250610       7.500000000E-02
     86        1      25       4     646.068176       5.000000000E-02
     87        1      17      27     677.467896       5.000000000E-02
     88        1      17      36     727.755371       5.000000000E-02
     89        1      29      10     747.381287       0.100000000    
     90        1      20      28     722.501770       5.000000000E-02
     91        1      31      28     834.707642       5.000000000E-02
     92        1      32      11     748.739685       0.100000000    
     93        1      33      12     770.996887       0.100000000    
     94        1      24      43     755.191528       5.000000000E-02
     95        1      25       8     730.048218       5.000000000E-02
     96        1      14      17     733.000000       0.100000000    
     97        1      17      13     674.576294       0.100000000    
     98        1      25      26     749.000000       2.500000000E-02
     99        1      18       5     619.000000       0.100000000    
    100        1      16      35     700.123718       5.000000000E-02
    101        1      10      10     625.228210       0.100000000    
    102        1      19      40     739.898926       0.100000000    
    103        1      20      14     726.262695       0.100000000    
    104        1      28      27     784.644775       3.750000000E-02
    105        1      12      19     664.409119       0.100000000    
    106        1      20      41     710.703613       0.100000000    
    107        1      31      41     928.631897       0.100000000    
    108        1      21       6     649.156921       7.500000000E-02
    109        1      32      15     864.753113       0.100000000    
    110        1      24      11     720.937134       5.000000000E-02
    111        1      13      11     649.622681       0.100000000    
    112        1      24      29     770.881042       2.500000000E-02
    113        1      25       3     658.622559       5.000000000E-02
    114        1      14      12     654.362976       0.100000000    
    115        1      16      21     701.000000       0.100000000    
    116        1      16      39     656.333984       7.500000000E-02
    117        1      20       9     713.882874       0.100000000    
    118        1      31       9     715.075012       0.100000000    
    119        1      28      31     798.284851       3.750000000E-02
    120        1      12      14     695.226746       0.100000000    
    121        1      20      27     719.390381       5.000000000E-02
    122        1      12      23     649.025757       0.100000000    
    123        1      21       1     623.164368       7.500000000E-02
    124        1      32      10     761.048096       0.100000000    
    125        1      13      15     719.318176       0.100000000    
    126        1      25       7     723.000000       5.000000000E-02
    127        1      16      25     671.359314       5.000000000E-02
    128        1      19      21     744.752686       0.100000000    
    129        1      19      30     711.774414       5.000000000E-02
    130        1      31      13     783.785645       0.100000000    
    131        1      28      26     777.023315       3.750000000E-02
    132        1      12      18     674.142456       0.100000000    
    133        1      21      14     742.009399       7.500000000E-02
    134        1      32      14     842.021179       0.100000000    
    135        1      35      16     866.598755       0.100000000    
    136        1      23      32     773.845886       2.500000000E-02
    137        1      23      41     766.308533       5.000000000E-02
    138        1      16      38     659.501221       5.000000000E-02
    139        1      19      34     767.407471       5.000000000E-02
    140        1      19      43     669.130920       0.100000000    
    141        1      20       8     713.000000       0.100000000    
    142        1      28      21     820.078857       7.500000000E-02
    143        1      12      13     665.000000       0.100000000    
    144        1      20      26     732.101196       5.000000000E-02
    145        1      12      22     650.594849       0.100000000    
    146        1      26      42     764.618408       5.000000000E-02
    147        1      23      27     754.102539       2.500000000E-02
    148        1      27       6     665.000000       5.000000000E-02
    149        1      16      15     734.307800       0.100000000    
    150        1      16      24     674.927490       7.500000000E-02
    151        1      19      29     715.646667       5.000000000E-02
    152        1      19      38     779.852234       5.000000000E-02
    153        1      31      12     785.690552       0.100000000    
    154        1      34      14     818.416321       0.100000000    
    155        1      23      13     746.969238       5.000000000E-02
    156        1      35      15     851.904480       0.100000000    
    157        1      23      31     771.000000       2.500000000E-02
    158        1      23      40     786.226440       5.000000000E-02
    159        1      19      24     717.431580       7.500000000E-02
    160        1      30      30     820.384338       5.000000000E-02
    161        1      22      26     733.000000       2.500000000E-02
    162        1      26       5     652.594971       5.000000000E-02
    163        1      23      26     735.841125       2.500000000E-02
    164        1      27       5     656.898315       5.000000000E-02
    165        1      16      14     700.552917       0.100000000    
    166        1       8      10     621.000000       0.100000000    
    167        1      18      42     668.327637       0.100000000    
    168        1      29      42     825.719421       0.100000000    
    169        1      30      16     895.793701       0.100000000    
    170        1      22      21     775.388306       5.000000000E-02
    171        1      11      11     638.523010       0.100000000    
    172        1      26       9     696.774414       5.000000000E-02
    173        1      26      27     761.313599       2.500000000E-02
    174        1      23       3     638.928467       5.000000000E-02
    175        1      26      36     817.326294       2.500000000E-02
    176        1      23      12     747.841370       5.000000000E-02
    177        1       4       8     609.000000       0.100000000    
    178        1      23      21     783.612732       5.000000000E-02
    179        1      15      26     652.210999       5.000000000E-02
    180        1      18      28     689.000000       5.000000000E-02
    181        1      29      28     802.066956       5.000000000E-02
    182        1      19       5     621.612610       0.100000000    
    183        1      18      37     755.992004       5.000000000E-02
    184        1      30      11     754.024292       0.100000000    
    185        1      30      20     845.000000       0.100000000    
    186        1      22      16     771.836731       5.000000000E-02
    187        1      30      29     817.342163       5.000000000E-02
    188        1      22      25     744.070801       2.500000000E-02
    189        1      22      43     712.632324       5.000000000E-02
    190        1      26       4     647.964111       5.000000000E-02
    191        1      11      15     705.692566       0.100000000    
    192        1      34      17     919.000000       0.100000000    
    193        1      14      26     649.000000       5.000000000E-02
    194        1      15      12     656.067810       0.100000000    
    195        1      17      40     714.186401       0.100000000    
    196        1      29      23     814.948242       0.100000000    
    197        1      29      32     815.008118       5.000000000E-02
    198        1      18      41     694.550537       0.100000000    
    199        1      22       2     628.716187       5.000000000E-02
    200        1      30      15     844.564331       0.100000000    
    201        1      30      24     823.162659       7.500000000E-02
    202        1      11      10     638.891541       0.100000000    
    203        1      32      42     948.530151       0.100000000    
    204        1      26       8     704.677612       5.000000000E-02
    205        1      21      42     699.917541       7.500000000E-02
    206        1      11      19     633.417664       0.100000000    
    207        1      23       2     641.058716       5.000000000E-02
    208        1      14      21     685.526062       0.100000000    
    209        1      25      21     790.255249       5.000000000E-02
    210        1      17      26     679.063110       5.000000000E-02
    211        1      29       9     732.867737       0.100000000    
    212        1      18      36     757.916321       5.000000000E-02
    213        1      30      10     739.894409       0.100000000    
    214        1      22      15     753.000000       5.000000000E-02
    215        1      11      14     689.548767       0.100000000    
    216        1      33      11     792.457886       0.100000000    
    217        1      24      42     765.125793       5.000000000E-02
    218        1      14      16     742.223267       0.100000000    
    219        1      14      25     645.768433       5.000000000E-02
    220        1      17      21     716.703674       0.100000000    
    221        1      17      39     724.373474       7.500000000E-02
    222        1      18      13     681.000000       0.100000000    
    223        1      29      31     813.953308       5.000000000E-02
    224        1      22       1     623.307007       5.000000000E-02
    225        1      20      40     750.590393       0.100000000    
    226        1      13      19     694.525146       0.100000000    
    227        1      21      41     717.436401       7.500000000E-02
    228        1      33      15     859.099915       0.100000000    
    229        1      25      11     734.870117       5.000000000E-02
    230        1      29       8     689.267151       0.100000000    
    231        1      10      13     659.000000       0.100000000    
    232        1      10      22     645.657410       0.100000000    
    233        1      28      30     791.774902       3.750000000E-02
    234        1      21       9     705.000000       7.500000000E-02
    235        1      13      14     703.598694       0.100000000    
    236        1      24      32     779.000000       2.500000000E-02
    237        1      29      12     783.462158       0.100000000    
    238        1      27      42     776.587158       5.000000000E-02
    239        1      28      25     787.719177       3.750000000E-02
    240        1      20      21     756.152039       0.100000000    
    241        1      20      30     728.150818       5.000000000E-02
    242        1      20      39     781.251587       7.500000000E-02
    243        1      32      13     839.000000       0.100000000    
    244        1      13      18     699.781677       0.100000000    
    245        1      24      27     745.468201       2.500000000E-02
    246        1      33      14     841.000000       0.100000000    
    247        1      25      10     701.000000       5.000000000E-02
    248        1      17      24     687.921814       7.500000000E-02
    249        1      19      33     749.000000       5.000000000E-02
    250        1      19      42     683.764893       0.100000000    
    251        1      28      29     790.403015       3.750000000E-02
    252        1      20      34     768.158813       5.000000000E-02
    253        1      31      43     936.538696       0.100000000    
    254        1      21       8     701.690857       7.500000000E-02
    255        1      20      43     683.379272       0.100000000    
    256        1      13      13     681.892517       0.100000000    
    257        1      21      26     736.373535       3.750000000E-02
    258        1       5       9     611.000000       0.100000000    
    259        1      13      22     664.053467       0.100000000    
    260        1      24      31     778.648071       2.500000000E-02
    261        1      16      41     661.000000       0.100000000    
    262        1      28       6     682.175537       7.500000000E-02
    263        1      31      11     780.063843       0.100000000    
    264        1       9      11     625.756958       0.100000000    
    265        1      31      20     858.843811       0.100000000    
    266        1      20      29     728.224976       5.000000000E-02
    267        1      32      12     791.866577       0.100000000    
    268        1      13      17     734.181946       0.100000000    
    269        1      17       5     617.000000       0.100000000    
    270        1      15      35     653.000000       5.000000000E-02
    271        1      27       9     711.710083       5.000000000E-02
    272        1      19      14     723.592407       0.100000000    
    273        1      16      27     677.849304       5.000000000E-02
    274        1      27      27     754.120056       2.500000000E-02
    275        1      19      23     730.933899       0.100000000    
    276        1      27      36     821.547119       2.500000000E-02
    277        1      19      32     723.000000       5.000000000E-02
    278        1      28      10     738.259399       7.500000000E-02
    279        1      19      41     698.138184       0.100000000    
    280        1      20       6     641.173523       0.100000000    
    281        1      28      28     770.508850       3.750000000E-02
    282        1      12      11     637.000000       0.100000000    
    283        1      21       7     671.091919       7.500000000E-02
    284        1      24       3     639.562622       5.000000000E-02
    285        1      24      12     737.357056       5.000000000E-02
    286        1      13      12     651.722290       0.100000000    
    287        1       5       8     609.000000       0.100000000    
    288        1      15      21     704.045105       0.100000000    
    289        1      23      43     727.403503       5.000000000E-02
    290        1      16      13     675.230469       0.100000000    
 --------------------------------------------------------------------


 ---------------------------------------------------
  RCH NO.    LAYER    ROW     COL       RECHARGE    
 ---------------------------------------------------
     1         1       2       8     2.351890760E-07
     2         1       3       8     4.650264930E-07
     3         1       4       7     2.375201070E-08
     4         1       4       8     7.189785290E-07
     5         1       4      15     3.707624230E-07
     6         1       4      16     1.410711870E-07
     7         1       5       7     5.318014400E-09
     8         1       5       8     1.172054930E-06
     9         1       5       9     5.318034500E-07
     10        1       5      10     5.772466000E-08
     11        1       5      15     4.024826930E-07
     12        1       5      16     6.164677820E-07
     13        1       6       8     8.184254690E-07
     14        1       6       9     1.273148150E-06
     15        1       6      10     4.456384040E-07
     16        1       6      13     1.909307480E-07
     17        1       6      14     9.713063690E-08
     18        1       6      15     6.461110890E-08
     19        1       6      16     7.893685440E-07
     20        1       7       8     4.484060140E-07
     21        1       7       9     1.273148150E-06
     22        1       7      10     2.491453490E-07
     23        1       7      13     7.666149960E-07
     24        1       7      14     1.120044950E-07
     25        1       7      15     1.434984090E-07
     26        1       7      16     8.734277790E-07
     27        1       7      17     9.288929210E-08
     28        1       8       8     2.342454920E-07
     29        1       8       9     1.231068300E-06
     30        1       8      10     2.353430000E-08
     31        1       8      13     1.131324600E-06
     32        1       8      14     1.273148150E-06
     33        1       8      15     1.095302530E-06
     34        1       8      16     8.758358670E-07
     35        1       8      17     1.008172160E-06
     36        1       8      18     6.979834990E-08
     37        1       9       8     3.897049840E-07
     38        1       9       9     1.038372910E-06
     39        1       9      12     1.165187720E-07
     40        1       9      13     1.270019610E-06
     41        1       9      14     5.860835080E-07
     42        1       9      15     8.528505990E-07
     43        1       9      16     1.273148150E-06
     44        1       9      17     1.273148150E-06
     45        1       9      18     3.034718830E-07
     46        1      10       8     8.399515440E-07
     47        1      10       9     9.076079950E-07
     48        1      10      10     1.201127710E-08
     49        1      10      12     2.676620210E-07
     50        1      10      13     1.059754590E-06
     51        1      10      14     8.032808860E-07
     52        1      10      15     5.967742820E-07
     53        1      10      16     1.266583900E-06
     54        1      10      17     1.273148150E-06
     55        1      10      18     1.486109860E-07
     56        1      10      22     9.728712970E-10
     57        1      11       8     1.043129600E-06
     58        1      11       9     1.135492450E-06
     59        1      11      10     1.283721830E-07
     60        1      11      12     9.559516680E-07
     61        1      11      13     1.020125570E-06
     62        1      11      14     5.684659770E-07
     63        1      11      15     3.590779240E-07
     64        1      11      16     5.118075900E-07
     65        1      11      17     1.273148150E-06
     66        1      11      18     1.107078300E-06
     67        1      11      19     8.251771900E-07
     68        1      11      20     7.519630070E-07
     69        1      11      21     4.576901190E-07
     70        1      11      22     2.740668250E-07
     71        1      11      23     2.756642100E-07
     72        1      12       8     1.020002950E-06
     73        1      12       9     1.098099670E-06
     74        1      12      10     7.714393010E-08
     75        1      12      11     5.506989820E-07
     76        1      12      12     7.019867180E-07
     77        1      12      13     1.273148150E-06
     78        1      12      14     8.830444490E-07
     79        1      12      15     1.565013810E-07
     80        1      12      16     9.885033580E-09
     81        1      12      17     1.266573360E-06
     82        1      12      18     1.242117400E-06
     83        1      12      19     1.156099360E-06
     84        1      12      20     1.191613260E-06
     85        1      12      21     6.142258540E-07
     86        1      12      22     3.968377170E-07
     87        1      12      23     8.535091220E-07
     88        1      12      24     2.074737060E-07
     89        1      12      25     2.690469240E-07
     90        1      13       8     1.096021100E-06
     91        1      13       9     1.273148150E-06
     92        1      13      10     2.232698160E-07
     93        1      13      11     6.949787630E-07
     94        1      13      12     3.054441490E-07
     95        1      13      13     1.272814960E-06
     96        1      13      14     1.240213000E-06
     97        1      13      15     5.918216690E-07
     98        1      13      16     2.002955760E-07
     99        1      13      17     1.273148150E-06
    100        1      13      18     5.695489380E-07
    101        1      13      19     7.305515480E-07
    102        1      13      20     4.071683250E-07
    103        1      13      21     6.396675950E-07
    104        1      13      22     1.080271250E-06
    105        1      13      23     9.297020510E-07
    106        1      13      24     1.133747690E-06
    107        1      13      25     9.806535750E-07
    108        1      13      26     8.178405440E-08
    109        1      14       7     3.673622900E-08
    110        1      14       8     1.238518390E-06
[...]
   4   1.0000E+30  1.0000E+30  1.0000E+30  1.0000E+30  1.0000E+30  1.0000E+30 -1.0000E+30   609.1       626.0       627.1    
        647.7       713.5       773.0       817.8       934.5       623.9      1.0000E+30  1.0000E+30  1.0000E+30  1.0000E+30
       1.0000E+30  1.0000E+30  1.0000E+30  1.0000E+30  1.0000E+30  1.0000E+30  1.0000E+30  1.0000E+30  1.0000E+30  1.0000E+30
       1.0000E+30  1.0000E+30  1.0000E+30  1.0000E+30  1.0000E+30  1.0000E+30  1.0000E+30  1.0000E+30  1.0000E+30  1.0000E+30
       1.0000E+30  1.0000E+30  1.0000E+30  1.0000E+30
   5   1.0000E+30  1.0000E+30  1.0000E+30  1.0000E+30  1.0000E+30  1.0000E+30 -1.0000E+30   613.5       643.5       703.4    
        742.0       800.3       865.8       961.4       1062.       621.2      1.0000E+30  1.0000E+30  1.0000E+30  1.0000E+30
       1.0000E+30  1.0000E+30  1.0000E+30  1.0000E+30  1.0000E+30  1.0000E+30  1.0000E+30  1.0000E+30  1.0000E+30  1.0000E+30
       1.0000E+30  1.0000E+30  1.0000E+30  1.0000E+30  1.0000E+30  1.0000E+30  1.0000E+30  1.0000E+30  1.0000E+30  1.0000E+30
       1.0000E+30  1.0000E+30  1.0000E+30  1.0000E+30
   6   1.0000E+30  1.0000E+30  1.0000E+30  1.0000E+30  1.0000E+30  1.0000E+30   621.0       642.2       732.0       766.0    
        812.6       899.1       1027.       1128.       1062.       621.7      1.0000E+30  1.0000E+30  1.0000E+30  1.0000E+30
       1.0000E+30  1.0000E+30  1.0000E+30  1.0000E+30  1.0000E+30  1.0000E+30  1.0000E+30  1.0000E+30  1.0000E+30  1.0000E+30
       1.0000E+30  1.0000E+30  1.0000E+30  1.0000E+30  1.0000E+30  1.0000E+30  1.0000E+30  1.0000E+30  1.0000E+30  1.0000E+30
       1.0000E+30  1.0000E+30  1.0000E+30  1.0000E+30
   7   1.0000E+30  1.0000E+30  1.0000E+30  1.0000E+30  1.0000E+30  1.0000E+30  1.0000E+30   656.3       752.1       773.4    
        853.3       1023.       1270.       1422.       1330.       629.3       641.8      1.0000E+30  1.0000E+30  1.0000E+30
       1.0000E+30  1.0000E+30  1.0000E+30  1.0000E+30  1.0000E+30  1.0000E+30  1.0000E+30  1.0000E+30  1.0000E+30  1.0000E+30
       1.0000E+30  1.0000E+30  1.0000E+30  1.0000E+30  1.0000E+30  1.0000E+30  1.0000E+30  1.0000E+30  1.0000E+30  1.0000E+30
       1.0000E+30  1.0000E+30  1.0000E+30  1.0000E+30
   8   1.0000E+30  1.0000E+30  1.0000E+30  1.0000E+30  1.0000E+30  1.0000E+30  1.0000E+30   609.5       756.2       712.4    
        839.1       1150.       1560.       2095.       2132.       648.5       631.3       646.4      1.0000E+30  1.0000E+30
       1.0000E+30  1.0000E+30  1.0000E+30  1.0000E+30  1.0000E+30  1.0000E+30  1.0000E+30  1.0000E+30  1.0000E+30  1.0000E+30
       1.0000E+30  1.0000E+30  1.0000E+30  1.0000E+30  1.0000E+30  1.0000E+30  1.0000E+30  1.0000E+30  1.0000E+30  1.0000E+30
       1.0000E+30  1.0000E+30  1.0000E+30  1.0000E+30
   9   1.0000E+30  1.0000E+30  1.0000E+30  1.0000E+30  1.0000E+30  1.0000E+30  1.0000E+30   642.3       721.0       667.2    
        733.5       1251.       1765.       2076.       2434.       2604.       2120.       629.3      1.0000E+30  1.0000E+30
       1.0000E+30  1.0000E+30  1.0000E+30  1.0000E+30  1.0000E+30  1.0000E+30  1.0000E+30  1.0000E+30  1.0000E+30  1.0000E+30
       1.0000E+30  1.0000E+30  1.0000E+30  1.0000E+30  1.0000E+30  1.0000E+30  1.0000E+30  1.0000E+30  1.0000E+30  1.0000E+30
       1.0000E+30  1.0000E+30  1.0000E+30  1.0000E+30
  10   1.0000E+30  1.0000E+30  1.0000E+30  1.0000E+30  1.0000E+30  1.0000E+30   625.0       638.1       731.1       656.7    
        721.6       1387.       1903.       2164.       2312.       2977.       2497.       635.8      1.0000E+30  1.0000E+30
        642.2       645.7       653.0      1.0000E+30  1.0000E+30  1.0000E+30  1.0000E+30  1.0000E+30  1.0000E+30  1.0000E+30
       1.0000E+30  1.0000E+30  1.0000E+30  1.0000E+30  1.0000E+30  1.0000E+30  1.0000E+30  1.0000E+30  1.0000E+30  1.0000E+30
       1.0000E+30  1.0000E+30  1.0000E+30  1.0000E+30
  11   1.0000E+30  1.0000E+30  1.0000E+30  1.0000E+30  1.0000E+30  1.0000E+30   624.3       638.2       810.6       693.7    
        714.6       1587.       2086.       2256.       2305.       2259.       2137.       642.5       633.5       633.6    
        638.9       639.8       640.1       645.0     -1.0000E+30  1.0000E+30  1.0000E+30  1.0000E+30  1.0000E+30  1.0000E+30
       1.0000E+30  1.0000E+30  1.0000E+30  1.0000E+30  1.0000E+30  1.0000E+30  1.0000E+30  1.0000E+30  1.0000E+30  1.0000E+30
       1.0000E+30  1.0000E+30  1.0000E+30  1.0000E+30
  12   1.0000E+30  1.0000E+30  1.0000E+30  1.0000E+30  1.0000E+30  1.0000E+30   621.0       641.0       1164.       1123.    
        729.5       1929.       2347.       2449.       2284.       1913.       1272.       680.0       671.2       863.9    
        775.0       663.5       661.2       652.2       642.4       658.9      1.0000E+30  1.0000E+30  1.0000E+30  1.0000E+30
       1.0000E+30  1.0000E+30  1.0000E+30  1.0000E+30  1.0000E+30  1.0000E+30  1.0000E+30  1.0000E+30  1.0000E+30  1.0000E+30
       1.0000E+30  1.0000E+30  1.0000E+30  1.0000E+30
  13   1.0000E+30  1.0000E+30  1.0000E+30  1.0000E+30  1.0000E+30  1.0000E+30 -1.0000E+30   616.2       1826.       1966.    
        2172.       2510.       2805.       2726.       2286.       1734.       910.1       741.9       748.4       830.8    
        701.1       697.5       812.2       855.1       645.4       650.8      1.0000E+30  1.0000E+30  1.0000E+30  1.0000E+30
       1.0000E+30  1.0000E+30  1.0000E+30  1.0000E+30  1.0000E+30  1.0000E+30  1.0000E+30  1.0000E+30  1.0000E+30  1.0000E+30
       1.0000E+30  1.0000E+30  1.0000E+30  1.0000E+30
  14   1.0000E+30  1.0000E+30  1.0000E+30  1.0000E+30  1.0000E+30  1.0000E+30   613.6       728.8       2145.       2648.    
        2870.       3031.       3057.       2833.       2321.       1807.       1176.       1136.       1037.       933.6    
        727.6       819.2       865.1       852.8       647.5       649.0       651.1       653.6     -1.0000E+30  1.0000E+30
       1.0000E+30  1.0000E+30  1.0000E+30 -1.0000E+30 -1.0000E+30 -1.0000E+30  1.0000E+30  1.0000E+30  1.0000E+30  1.0000E+30
       1.0000E+30  1.0000E+30  1.0000E+30  1.0000E+30
  15   1.0000E+30  1.0000E+30  1.0000E+30  1.0000E+30  1.0000E+30  1.0000E+30   703.2       1666.       2816.       3253.    
        3348.       3408.       3254.       2965.       2515.       2029.       1650.       1471.       1294.       1070.    
        777.2       845.5       853.1       667.8       653.2       652.3       652.7       653.1       651.4       649.9    
        652.1       653.0       654.0       653.7       653.1       655.1       659.5       662.5       664.3       669.8    
        712.9      1.0000E+30  1.0000E+30  1.0000E+30
  16   1.0000E+30  1.0000E+30  1.0000E+30  1.0000E+30 -1.0000E+30   616.4       764.7       2674.       3695.       3953.    
        3932.       3744.       3592.       3256.       2820.       2300.       1951.       1696.       1461.       1176.    
        819.7       864.9       839.9       692.0       673.5       670.4       682.7       852.3       992.5       1191.    
        1378.       1421.       1326.       1109.       702.9       704.6       680.9       659.8       656.5       664.5    
        661.1     -1.0000E+30  1.0000E+30  1.0000E+30
  17   1.0000E+30  1.0000E+30 -1.0000E+30 -1.0000E+30   626.3       1438.       2573.       3686.       4604.       4857.    
        4747.       4379.       4364.       3652.       3153.       2614.       2199.       1880.       1595.       1266.    
        901.3       885.9       836.6       721.9       711.1       691.7       685.1       700.9       786.7       857.8    
        903.4       916.7       906.5       868.7       810.4       757.6       737.8       733.1       725.7       714.2    
        671.1       668.2      1.0000E+30  1.0000E+30
  18   1.0000E+30 -1.0000E+30   1955.       1681.       700.8       2464.       3768.       4612.       5642.       5783.    
        5679.     -1.0000E+30   4996.       4387.       3520.       2886.       2418.       2045.       1705.       1345.    
        986.0       913.7       837.8       751.3       740.8       744.3       739.3       715.4       723.5       749.2    
        797.3       839.1       855.2       852.2       832.1       798.9       783.7       778.7       777.5       739.2    
        694.7       668.4       672.7      1.0000E+30
  19    638.0       1920.       2234.       2297.       2078.       3774.       4354.     -1.0000E+30   6912.       6729.    
        6535.     -1.0000E+30   5571.       4991.       4179.       3255.       2692.       2232.       1840.       1434.    
        1045.       949.6       840.7       787.2       783.0       778.3       770.6       757.1       737.5       731.2    
        740.2       753.8       775.0       803.6       854.1       881.0       874.2       846.9       851.7       740.4    
        698.3       683.9       669.2     -1.0000E+30
  20    654.6       1838.       2460.       2913.       3520.       4334.       4669.     -1.0000E+30   8152.       8109.    
        7402.       6861.       6125.       5453.       4606.       3559.       2956.       2447.       2014.       1564.    
        1118.       1043.       977.6       894.0       832.3       791.7       769.1       759.4       756.9       764.5    
        796.5       807.5       800.9       827.4       911.6       966.6       976.2       944.3       877.5       778.1    
        710.9       691.2       683.5      1.0000E+30
  21    703.8       1942.       2706.       3329.       3898.       4553.     -1.0000E+30 -1.0000E+30   9273.       8951.    
        7695.       6935.       6356.       5728.       4896.       3821.       3187.       2664.       2200.       1717.    
        1242.       1175.       1114.       987.1       874.9       827.2       813.6       814.7       824.4       840.5    
        864.3       892.3       925.3       970.9       1029.       1077.       1097.       1089.       1058.       1013.    
        718.4       701.1       696.3      1.0000E+30
  22    626.4       2160.       2955.       3917.       4394.       4645.     -1.0000E+30 -1.0000E+30  1.0047E+04   9994.    
      -1.0000E+30   6998.       6504.       5875.       5068.       4010.       3363.       2820.       2338.       1844.    
        1369.       1302.       1233.       1084.       942.7       869.4       843.8       842.8       852.1       867.3    
        886.7       917.2       966.2       1026.       1088.       1140.       1169.       1174.       1147.       1039.    
        749.8       1004.       713.1      1.0000E+30
  23   1.0000E+30 -1.0000E+30   3353.       4252.       4660.     -1.0000E+30 -1.0000E+30 -1.0000E+30  1.0556E+04  1.0601E+04
      -1.0000E+30   7170.       6670.       6003.       5187.       4160.       3519.       2960.       2462.       1961.    
        1476.       1419.       1341.       1181.       1024.       917.6       876.2       870.6       879.4       893.2    
        908.5       937.0       992.7       1056.       1120.       1175.       1215.       1235.       1220.       1053.    
        877.3       893.2       727.7      1.0000E+30
  24   1.0000E+30  1.0000E+30 -1.0000E+30   4588.       4898.     -1.0000E+30 -1.0000E+30 -1.0000E+30  1.1028E+04  1.1064E+04
      -1.0000E+30   7395.       6879.       6173.       5328.       4318.       3685.       3118.       2617.       2116.    
        1630.       1569.       1468.       1288.       1113.       981.0       923.7       919.6       928.6       939.9    
        953.7       979.7       1030.       1086.       1144.       1204.       1258.       1301.       1317.       1239.    
        1105.       814.2     -1.0000E+30  1.0000E+30
  25   1.0000E+30  1.0000E+30 -1.0000E+30   4805.       5066.     -1.0000E+30 -1.0000E+30 -1.0000E+30  1.1520E+04  1.1638E+04
      -1.0000E+30   7658.       7123.       6355.       5486.       4472.       3860.       3276.       2792.       2310.    
        1851.       1755.       1617.       1412.       1214.       1058.       992.1       992.8       1003.       1012.    
        1024.       1046.       1085.       1126.       1171.       1234.       1305.       1371.       1421.       1421.    
        1323.       800.5      1.0000E+30  1.0000E+30
  26   1.0000E+30  1.0000E+30  1.0000E+30 -1.0000E+30   5208.     -1.0000E+30 -1.0000E+30 -1.0000E+30  1.1930E+04  1.1959E+04
      -1.0000E+30   8031.       7356.       6492.       5602.       4599.       4006.       3423.       2963.       2521.    
        2121.       1964.       1788.       1558.       1339.       1162.       1089.       1091.       1096.       1099.    
        1108.       1129.       1159.       1188.       1217.       1280.       1364.       1447.       1526.       1578.    
        1511.       804.0      1.0000E+30  1.0000E+30
  27   1.0000E+30  1.0000E+30  1.0000E+30  1.0000E+30 -1.0000E+30 -1.0000E+30 -1.0000E+30 -1.0000E+30  1.2206E+04  1.2120E+04
      -1.0000E+30   8526.       7574.       6574.       5676.       4696.       4127.       3562.       3121.       2722.    
        2373.       2175.       1970.       1728.       1503.       1321.       1236.       1225.       1211.       1198.    
        1201.       1222.       1253.       1283.       1314.       1367.       1452.       1540.       1636.       1720.    
        1721.       779.6      1.0000E+30  1.0000E+30
  28   1.0000E+30  1.0000E+30  1.0000E+30  1.0000E+30 -1.0000E+30 -1.0000E+30 -1.0000E+30 -1.0000E+30  1.2473E+04  1.2170E+04
       1.1093E+04   9362.       7804.       6575.       5709.       4779.       4246.       3718.       3307.       2954.    
        2649.       2428.       2203.       1965.       1768.       1628.       1527.       1458.       1397.       1349.    
        1338.       1361.       1395.       1434.       1476.       1528.       1602.       1682.       1782.       1881.    
        1923.       803.4      1.0000E+30  1.0000E+30
  29   1.0000E+30  1.0000E+30  1.0000E+30  1.0000E+30  1.0000E+30 -1.0000E+30 -1.0000E+30 -1.0000E+30  1.2871E+04  1.2644E+04
       1.1426E+04  1.0410E+04 -1.0000E+30   6171.       5627.       4832.       4346.       3885.       3541.       3227.    
        2966.       2740.       2510.       2292.       2128.       2007.       1902.       1813.       1731.       1670.    
        1638.       1634.       1649.       1677.       1717.       1768.       1833.       1901.       1983.       2081.    
        2160.     -1.0000E+30  1.0000E+30  1.0000E+30
  30   1.0000E+30  1.0000E+30  1.0000E+30  1.0000E+30  1.0000E+30  1.0000E+30  1.0000E+30 -1.0000E+30  1.3138E+04  1.3289E+04
      -1.0000E+30 -1.0000E+30 -1.0000E+30   5959.       5561.       4942.       4386.       4005.       3724.       3462.    
        3237.       3021.       2797.       2586.       2441.       2334.       2232.       2144.       2065.       2001.    
        1958.       1936.       1931.       1941.       1966.       2006.       2056.       2107.       2169.       2254.    
        2360.       2528.     -1.0000E+30  1.0000E+30
  31   1.0000E+30  1.0000E+30  1.0000E+30  1.0000E+30  1.0000E+30  1.0000E+30  1.0000E+30  1.0000E+30 -1.0000E+30  1.3825E+04
      -1.0000E+30 -1.0000E+30 -1.0000E+30   5857.       5496.       4857.       4440.       4095.       3859.       3652.    
        3455.       3244.       3016.       2817.       2678.       2579.       2487.       2401.       2322.       2261.    
        2214.       2181.       2163.       2160.       2169.       2190.       2218.       2251.       2296.       2368.    
        2456.       2547.       2571.       2569.    
  32   1.0000E+30  1.0000E+30  1.0000E+30  1.0000E+30  1.0000E+30  1.0000E+30  1.0000E+30  1.0000E+30  1.0000E+30 -1.0000E+30
      -1.0000E+30 -1.0000E+30 -1.0000E+30   5810.       5460.       4836.       4469.       4157.       3952.       3775.    
        3600.       3407.       3190.       3004.       2879.       2784.       2694.       2605.       2520.       2441.    
        2383.       2342.       2315.       2301.       2298.       2302.       2315.       2334.       2362.       2412.    
        2469.       2525.       2554.       2562.    
  33   1.0000E+30  1.0000E+30  1.0000E+30  1.0000E+30  1.0000E+30  1.0000E+30  1.0000E+30  1.0000E+30  1.0000E+30  1.0000E+30
      -1.0000E+30 -1.0000E+30 -1.0000E+30   5784.       5412.       4837.       4493.       4203.       4016.       3848.    
        3685.       3493.       3296.       3127.       3013.       2925.       2839.       2754.       2662.       2551.    
        2466.       2410.       2374.       2352.       2340.       2337.       2340.       2346.       2355.     -1.0000E+30
      -1.0000E+30 -1.0000E+30  1.0000E+30  1.0000E+30
  34   1.0000E+30  1.0000E+30  1.0000E+30  1.0000E+30  1.0000E+30  1.0000E+30  1.0000E+30  1.0000E+30  1.0000E+30  1.0000E+30
       1.0000E+30  1.0000E+30  1.0000E+30 -1.0000E+30   5248.       4818.       4512.       4238.       4068.       3884.    
        3716.       3511.       3315.       3153.       3047.       2969.       2901.       2846.       2811.     -1.0000E+30
      -1.0000E+30 -1.0000E+30 -1.0000E+30  1.0000E+30  1.0000E+30  1.0000E+30  1.0000E+30  1.0000E+30  1.0000E+30  1.0000E+30
       1.0000E+30  1.0000E+30  1.0000E+30  1.0000E+30
  35   1.0000E+30  1.0000E+30  1.0000E+30  1.0000E+30  1.0000E+30  1.0000E+30  1.0000E+30  1.0000E+30  1.0000E+30  1.0000E+30
       1.0000E+30  1.0000E+30  1.0000E+30  1.0000E+30 -1.0000E+30   4734.       4516.       4268.       4154.     -1.0000E+30
      -1.0000E+30 -1.0000E+30  1.0000E+30  1.0000E+30  1.0000E+30  1.0000E+30  1.0000E+30  1.0000E+30  1.0000E+30  1.0000E+30
       1.0000E+30  1.0000E+30  1.0000E+30  1.0000E+30  1.0000E+30  1.0000E+30  1.0000E+30  1.0000E+30  1.0000E+30  1.0000E+30
       1.0000E+30  1.0000E+30  1.0000E+30  1.0000E+30

 HEAD WILL BE SAVED ON UNIT 1015 AT END OF TIME STEP    1, STRESS PERIOD    1


  VOLUME BUDGET FOR ENTIRE MODEL AT END OF TIME STEP    1, STRESS PERIOD   1
  ---------------------------------------------------------------------------------------------------

     CUMULATIVE VOLUME      L**3       RATES FOR THIS TIME STEP      L**3/T          PACKAGE NAME    
     ------------------                 ------------------------                     ----------------

           IN:                                      IN:
           ---                                      ---
                 DRN =           0.0000                   DRN =           0.0000     DRN             
                 RCH =           3.3907                   RCH =           3.3907     RCH             
                 CHD =       2.0570E-03                   CHD =       2.0570E-03     CHD             

            TOTAL IN =           3.3927              TOTAL IN =           3.3927

          OUT:                                     OUT:
          ----                                     ----
                 DRN =           2.9216                   DRN =           2.9216     DRN             
                 RCH =           0.0000                   RCH =           0.0000     RCH             
                 CHD =           0.4711                   CHD =           0.4711     CHD             

           TOTAL OUT =           3.3927             TOTAL OUT =           3.3927

            IN - OUT =       1.5839E-06              IN - OUT =       1.5839E-06

 PERCENT DISCREPANCY =           0.00     PERCENT DISCREPANCY =           0.00




         TIME SUMMARY AT END OF TIME STEP    1 IN STRESS PERIOD    1
                    SECONDS     MINUTES      HOURS       DAYS        YEARS
                    -----------------------------------------------------------
   TIME STEP LENGTH  1.0000     1.66667E-02 2.77778E-04 1.15741E-05 3.16881E-08
 STRESS PERIOD TIME  1.0000     1.66667E-02 2.77778E-04 1.15741E-05 3.16881E-08
         TOTAL TIME  1.0000     1.66667E-02 2.77778E-04 1.15741E-05 3.16881E-08


end timestep

