                                   MODFLOW 6
                U.S. GEOLOGICAL SURVEY MODULAR HYDROLOGIC MODEL
                            VERSION 6.2.0 10/22/2020

   MODFLOW 6 compiled Oct 22 2020 09:26:42 with IFORT compiler (ver. 19.10.2)

This software has been approved for release by the U.S. Geological 
Survey (USGS). Although the software has been subjected to rigorous 
review, the USGS reserves the right to update the software as needed 
pursuant to further analysis and review. No warranty, expressed or 
implied, is made by the USGS or the U.S. Government as to the 
functionality of the software and related material nor shall the 
fact of release constitute any such warranty. Furthermore, the 
software is released on condition that neither the USGS nor the U.S. 
Government shall be held liable for any damages resulting from its 
authorized or unauthorized use. Also refer to the USGS Water 
Resources Software User Rights Notice for complete use, copyright, 
and distribution information.


System command used to initiate simulation:
C:\WRDAPP\mf6.2.0\bin\mf6

MODFLOW was compiled using uniform precision.

Real Variables
  KIND: 8
  TINY (smallest non-zero value):    2.225074-308
  HUGE (largest value):    1.797693+308
  PRECISION: 15
  BIT SIZE: 64

Integer Variables
  KIND: 4
  HUGE (largest value): 2147483647
  BIT SIZE: 32

Long Integer Variables
  KIND: 8
  HUGE (largest value): 9223372036854775807
  BIT SIZE: 64

Logical Variables
  KIND: 4
  BIT SIZE: 32
 

 OPENED mfsim.nam
 FILE TYPE:NAM   UNIT 1001   STATUS:OLD                 
 FORMAT:FORMATTED              ACCESS:SEQUENTIAL          
 ACTION:READ                

 # File generated by Flopy version 3.3.2 on 02/07/2021 at 14:54:10.

 READING SIMULATION OPTIONS
 END OF SIMULATION OPTIONS

 READING SIMULATION TIMING

 OPENED modelo_Norte.tdis
 FILE TYPE:TDIS   UNIT 1002   STATUS:OLD                 
 FORMAT:FORMATTED              ACCESS:SEQUENTIAL          
 ACTION:READ                


 TDIS -- TEMPORAL DISCRETIZATION PACKAGE,
 VERSION 1 : 11/13/2014 - INPUT READ FROM UNIT 1002
 # File generated by Flopy version 3.3.2 on 02/07/2021 at 14:54:10.
 PROCESSING TDIS OPTIONS
    SIMULATION TIME UNIT IS SECONDS
 END OF TDIS OPTIONS
 PROCESSING TDIS DIMENSIONS
    1 STRESS PERIOD(S) IN SIMULATION
 END OF TDIS DIMENSIONS
 PROCESSING TDIS PERIODDATA


 STRESS PERIOD     LENGTH       TIME STEPS     MULTIPLIER FOR DELT
 ----------------------------------------------------------------------------
        1         1.000000          1                    1.000
 END OF TDIS PERIODDATA
 END OF SIMULATION TIMING

 READING SIMULATION MODELS
    GWF6 model MODELO_NORTE will be created as model 1
 END OF SIMULATION MODELS

 READING SIMULATION EXCHANGES
 END OF SIMULATION EXCHANGES

 READING SOLUTIONGROUP

 Creating solution: SLN_1           

 OPENED modelo_Norte.ims
 FILE TYPE:IMS   UNIT 1010   STATUS:OLD                 
 FORMAT:FORMATTED              ACCESS:SEQUENTIAL          
 ACTION:READ                

 END OF SIMULATION SOLUTIONGROUP

ERROR REPORT:

     1. ERROR. CELL (1,1,15) THICKNESS <= 0. TOP, BOT:     629.000000000000
             975.000000000000
     2. ERROR. CELL (1,1,16) THICKNESS <= 0. TOP, BOT:     623.000000000000
             975.000000000000
     3. ERROR. CELL (1,2,15) THICKNESS <= 0. TOP, BOT:     627.000000000000
             975.000000000000
     4. ERROR. CELL (1,2,16) THICKNESS <= 0. TOP, BOT:     624.000000000000
             975.000000000000
     5. ERROR. CELL (1,2,17) THICKNESS <= 0. TOP, BOT:     622.000000000000
             975.000000000000
     6. ERROR. CELL (1,3,14) THICKNESS <= 0. TOP, BOT:     647.000000000000
             975.000000000000
     7. ERROR. CELL (1,3,15) THICKNESS <= 0. TOP, BOT:     629.000000000000
             975.000000000000
     8. ERROR. CELL (1,3,16) THICKNESS <= 0. TOP, BOT:     624.195190430000
             975.000000000000
     9. ERROR. CELL (1,3,17) THICKNESS <= 0. TOP, BOT:     608.000000000000
             975.000000000000
    10. ERROR. CELL (1,3,18) THICKNESS <= 0. TOP, BOT:     608.178344730000
             975.000000000000
    11. ERROR. CELL (1,3,22) THICKNESS <= 0. TOP, BOT:     611.307373050000
             975.000000000000
    12. ERROR. CELL (1,3,23) THICKNESS <= 0. TOP, BOT:     612.000000000000
             975.000000000000
    13. ERROR. CELL (1,3,24) THICKNESS <= 0. TOP, BOT:     612.252380370000
             975.000000000000
    14. ERROR. CELL (1,3,25) THICKNESS <= 0. TOP, BOT:     612.000000000000
             975.000000000000
    15. ERROR. CELL (1,3,26) THICKNESS <= 0. TOP, BOT:     612.000000000000
             975.000000000000
    16. ERROR. CELL (1,3,27) THICKNESS <= 0. TOP, BOT:     614.000000000000
             975.000000000000
    17. ERROR. CELL (1,3,28) THICKNESS <= 0. TOP, BOT:     615.610168460000
             975.000000000000
    18. ERROR. CELL (1,3,29) THICKNESS <= 0. TOP, BOT:     616.000000000000
             975.000000000000
    19. ERROR. CELL (1,3,30) THICKNESS <= 0. TOP, BOT:     616.747680660000
             975.000000000000
    20. ERROR. CELL (1,4,14) THICKNESS <= 0. TOP, BOT:     637.000000000000
             975.000000000000
    21. ERROR. CELL (1,4,15) THICKNESS <= 0. TOP, BOT:     607.119934080000
             975.000000000000
    22. ERROR. CELL (1,4,16) THICKNESS <= 0. TOP, BOT:     630.000000000000
             975.000000000000
    23. ERROR. CELL (1,4,17) THICKNESS <= 0. TOP, BOT:     625.746459960000
             975.000000000000
    24. ERROR. CELL (1,4,18) THICKNESS <= 0. TOP, BOT:     610.659606930000
             975.000000000000
    25. ERROR. CELL (1,4,19) THICKNESS <= 0. TOP, BOT:     608.000000000000
             975.000000000000
    26. ERROR. CELL (1,4,20) THICKNESS <= 0. TOP, BOT:     609.955993650000
             975.000000000000
    27. ERROR. CELL (1,4,21) THICKNESS <= 0. TOP, BOT:     610.000000000000
             975.000000000000
    28. ERROR. CELL (1,4,22) THICKNESS <= 0. TOP, BOT:     610.000000000000
             975.000000000000
    29. ERROR. CELL (1,4,23) THICKNESS <= 0. TOP, BOT:     611.787170410000
             975.000000000000
    30. ERROR. CELL (1,4,24) THICKNESS <= 0. TOP, BOT:     616.587768550000
             975.000000000000
    31. ERROR. CELL (1,4,25) THICKNESS <= 0. TOP, BOT:     617.820983890000
             975.000000000000
    32. ERROR. CELL (1,4,26) THICKNESS <= 0. TOP, BOT:     617.801696780000
             975.000000000000
    33. ERROR. CELL (1,4,27) THICKNESS <= 0. TOP, BOT:     618.011352540000
             975.000000000000
    34. ERROR. CELL (1,4,28) THICKNESS <= 0. TOP, BOT:     620.072326660000
             975.000000000000
    35. ERROR. CELL (1,4,29) THICKNESS <= 0. TOP, BOT:     621.425781250000
             975.000000000000
    36. ERROR. CELL (1,4,30) THICKNESS <= 0. TOP, BOT:     624.000000000000
             975.000000000000
    37. ERROR. CELL (1,4,31) THICKNESS <= 0. TOP, BOT:     625.676208500000
             975.000000000000
    38. ERROR. CELL (1,5,14) THICKNESS <= 0. TOP, BOT:     625.000000000000
             975.000000000000
    39. ERROR. CELL (1,5,15) THICKNESS <= 0. TOP, BOT:     606.261657710000
             975.000000000000
    40. ERROR. CELL (1,5,16) THICKNESS <= 0. TOP, BOT:     609.679809570000
             975.000000000000
    41. ERROR. CELL (1,5,17) THICKNESS <= 0. TOP, BOT:     624.000000000000
             975.000000000000
    42. ERROR. CELL (1,5,18) THICKNESS <= 0. TOP, BOT:     624.000000000000
             975.000000000000
    43. ERROR. CELL (1,5,19) THICKNESS <= 0. TOP, BOT:     613.304443360000
             975.000000000000
    44. ERROR. CELL (1,5,20) THICKNESS <= 0. TOP, BOT:     610.998718260000
             975.000000000000
    45. ERROR. CELL (1,5,21) THICKNESS <= 0. TOP, BOT:     612.000000000000
             975.000000000000
    46. ERROR. CELL (1,5,22) THICKNESS <= 0. TOP, BOT:     613.412902830000
             975.000000000000
    47. ERROR. CELL (1,5,23) THICKNESS <= 0. TOP, BOT:     616.000000000000
             975.000000000000
    48. ERROR. CELL (1,5,24) THICKNESS <= 0. TOP, BOT:     616.543518070000
             975.000000000000
    49. ERROR. CELL (1,5,25) THICKNESS <= 0. TOP, BOT:     617.549682620000
             975.000000000000
    50. ERROR. CELL (1,5,26) THICKNESS <= 0. TOP, BOT:     619.253234860000
             975.000000000000
    51. ERROR. CELL (1,5,27) THICKNESS <= 0. TOP, BOT:     628.164916990000
             975.000000000000
    52. ERROR. CELL (1,5,28) THICKNESS <= 0. TOP, BOT:     628.456909180000
             975.000000000000
    53. ERROR. CELL (1,5,29) THICKNESS <= 0. TOP, BOT:     626.858703610000
             975.000000000000
    54. ERROR. CELL (1,5,30) THICKNESS <= 0. TOP, BOT:     625.034545900000
             975.000000000000
    55. ERROR. CELL (1,5,31) THICKNESS <= 0. TOP, BOT:     617.154968260000
             975.000000000000
    56. ERROR. CELL (1,6,14) THICKNESS <= 0. TOP, BOT:     621.000000000000
             975.000000000000
    57. ERROR. CELL (1,6,15) THICKNESS <= 0. TOP, BOT:     615.000000000000
             975.000000000000
    58. ERROR. CELL (1,6,16) THICKNESS <= 0. TOP, BOT:     608.000000000000
             975.000000000000
    59. ERROR. CELL (1,6,17) THICKNESS <= 0. TOP, BOT:     611.485900880000
             975.000000000000
    60. ERROR. CELL (1,6,18) THICKNESS <= 0. TOP, BOT:     622.724060060000
             975.000000000000
    61. ERROR. CELL (1,6,19) THICKNESS <= 0. TOP, BOT:     619.218200680000
             975.000000000000
    62. ERROR. CELL (1,6,20) THICKNESS <= 0. TOP, BOT:     614.585815430000
             975.000000000000
    63. ERROR. CELL (1,6,21) THICKNESS <= 0. TOP, BOT:     613.630004880000
             975.000000000000
    64. ERROR. CELL (1,6,22) THICKNESS <= 0. TOP, BOT:     616.097656250000
             975.000000000000
    65. ERROR. CELL (1,6,23) THICKNESS <= 0. TOP, BOT:     616.535217290000
             975.000000000000
    66. ERROR. CELL (1,6,24) THICKNESS <= 0. TOP, BOT:     617.161254880000
             975.000000000000
    67. ERROR. CELL (1,6,25) THICKNESS <= 0. TOP, BOT:     617.882507320000
             975.000000000000
    68. ERROR. CELL (1,6,26) THICKNESS <= 0. TOP, BOT:     624.000000000000
             975.000000000000
    69. ERROR. CELL (1,6,27) THICKNESS <= 0. TOP, BOT:     631.085327150000
             975.000000000000
    70. ERROR. CELL (1,6,28) THICKNESS <= 0. TOP, BOT:     641.754211430000
             975.000000000000
    71. ERROR. CELL (1,6,29) THICKNESS <= 0. TOP, BOT:     638.000000000000
             975.000000000000
    72. ERROR. CELL (1,6,30) THICKNESS <= 0. TOP, BOT:     630.439086910000
             975.000000000000
    73. ERROR. CELL (1,6,31) THICKNESS <= 0. TOP, BOT:     617.598388670000
             975.000000000000
    74. ERROR. CELL (1,7,14) THICKNESS <= 0. TOP, BOT:     621.000000000000
             975.000000000000
    75. ERROR. CELL (1,7,15) THICKNESS <= 0. TOP, BOT:     617.000000000000
             975.000000000000
    76. ERROR. CELL (1,7,16) THICKNESS <= 0. TOP, BOT:     608.000000000000
             975.000000000000
    77. ERROR. CELL (1,7,17) THICKNESS <= 0. TOP, BOT:     608.949157710000
             975.000000000000
    78. ERROR. CELL (1,7,18) THICKNESS <= 0. TOP, BOT:     612.000000000000
             975.000000000000
    79. ERROR. CELL (1,7,19) THICKNESS <= 0. TOP, BOT:     620.070434570000
             975.000000000000
    80. ERROR. CELL (1,7,20) THICKNESS <= 0. TOP, BOT:     616.096740720000
             975.000000000000
    81. ERROR. CELL (1,7,21) THICKNESS <= 0. TOP, BOT:     616.716064450000
             975.000000000000
    82. ERROR. CELL (1,7,22) THICKNESS <= 0. TOP, BOT:     616.920410160000
             975.000000000000
    83. ERROR. CELL (1,7,23) THICKNESS <= 0. TOP, BOT:     617.219299320000
             975.000000000000
    84. ERROR. CELL (1,7,24) THICKNESS <= 0. TOP, BOT:     617.744384770000
             975.000000000000
    85. ERROR. CELL (1,7,25) THICKNESS <= 0. TOP, BOT:     624.000000000000
             975.000000000000
    86. ERROR. CELL (1,7,26) THICKNESS <= 0. TOP, BOT:     628.342102050000
             975.000000000000
    87. ERROR. CELL (1,7,27) THICKNESS <= 0. TOP, BOT:     639.621337890000
             975.000000000000
    88. ERROR. CELL (1,7,28) THICKNESS <= 0. TOP, BOT:     643.659545900000
             975.000000000000
    89. ERROR. CELL (1,7,29) THICKNESS <= 0. TOP, BOT:     642.000000000000
             975.000000000000
    90. ERROR. CELL (1,7,30) THICKNESS <= 0. TOP, BOT:     634.633117680000
             975.000000000000
    91. ERROR. CELL (1,7,31) THICKNESS <= 0. TOP, BOT:     621.191284180000
             975.000000000000
    92. ERROR. CELL (1,7,32) THICKNESS <= 0. TOP, BOT:     630.481994630000
             975.000000000000
    93. ERROR. CELL (1,8,14) THICKNESS <= 0. TOP, BOT:     620.000000000000
             975.000000000000
    94. ERROR. CELL (1,8,15) THICKNESS <= 0. TOP, BOT:     620.000000000000
             975.000000000000
    95. ERROR. CELL (1,8,16) THICKNESS <= 0. TOP, BOT:     610.000000000000
             975.000000000000
    96. ERROR. CELL (1,8,17) THICKNESS <= 0. TOP, BOT:     610.000000000000
             975.000000000000
    97. ERROR. CELL (1,8,18) THICKNESS <= 0. TOP, BOT:     610.000000000000
             975.000000000000
    98. ERROR. CELL (1,8,19) THICKNESS <= 0. TOP, BOT:     612.353881840000
             975.000000000000
    99. ERROR. CELL (1,8,20) THICKNESS <= 0. TOP, BOT:     617.414062500000
             975.000000000000
   100. ERROR. CELL (1,8,21) THICKNESS <= 0. TOP, BOT:     617.467041020000
             975.000000000000
   101. ERROR. CELL (1,8,22) THICKNESS <= 0. TOP, BOT:     617.741882320000
             975.000000000000
   102. ERROR. CELL (1,8,23) THICKNESS <= 0. TOP, BOT:     617.954467770000
             975.000000000000
   103. ERROR. CELL (1,8,24) THICKNESS <= 0. TOP, BOT:     620.263122560000
             975.000000000000
   104. ERROR. CELL (1,8,25) THICKNESS <= 0. TOP, BOT:     623.326538090000
             975.000000000000
   105. ERROR. CELL (1,8,26) THICKNESS <= 0. TOP, BOT:     628.000000000000
             975.000000000000
   106. ERROR. CELL (1,8,27) THICKNESS <= 0. TOP, BOT:     643.515380860000
             975.000000000000
   107. ERROR. CELL (1,8,28) THICKNESS <= 0. TOP, BOT:     644.958068850000
             975.000000000000
   108. ERROR. CELL (1,8,29) THICKNESS <= 0. TOP, BOT:     644.834167480000
             975.000000000000
   109. ERROR. CELL (1,8,30) THICKNESS <= 0. TOP, BOT:     644.080261230000
             975.000000000000
   110. ERROR. CELL (1,8,31) THICKNESS <= 0. TOP, BOT:     625.778869630000
             975.000000000000
   111. ERROR. CELL (1,8,32) THICKNESS <= 0. TOP, BOT:     626.559387210000
             975.000000000000
   112. ERROR. CELL (1,9,15) THICKNESS <= 0. TOP, BOT:     608.000000000000
             975.000000000000
   113. ERROR. CELL (1,9,16) THICKNESS <= 0. TOP, BOT:     608.878479000000
             975.000000000000
   114. ERROR. CELL (1,9,17) THICKNESS <= 0. TOP, BOT:     610.000000000000
             975.000000000000
   115. ERROR. CELL (1,9,18) THICKNESS <= 0. TOP, BOT:     610.000000000000
             975.000000000000
   116. ERROR. CELL (1,9,19) THICKNESS <= 0. TOP, BOT:     613.435241700000
             975.000000000000
   117. ERROR. CELL (1,9,20) THICKNESS <= 0. TOP, BOT:     616.809326170000
             975.000000000000
   118. ERROR. CELL (1,9,21) THICKNESS <= 0. TOP, BOT:     618.158752440000
             975.000000000000
   119. ERROR. CELL (1,9,22) THICKNESS <= 0. TOP, BOT:     620.000000000000
             975.000000000000
   120. ERROR. CELL (1,9,23) THICKNESS <= 0. TOP, BOT:     620.266479490000
             975.000000000000
   121. ERROR. CELL (1,9,24) THICKNESS <= 0. TOP, BOT:     622.034729000000
             975.000000000000
   122. ERROR. CELL (1,9,25) THICKNESS <= 0. TOP, BOT:     624.207031250000
             975.000000000000
   123. ERROR. CELL (1,9,26) THICKNESS <= 0. TOP, BOT:     631.942993160000
             975.000000000000
   124. ERROR. CELL (1,9,27) THICKNESS <= 0. TOP, BOT:     652.000000000000
             975.000000000000
   125. ERROR. CELL (1,9,28) THICKNESS <= 0. TOP, BOT:     652.000000000000
             975.000000000000
   126. ERROR. CELL (1,9,29) THICKNESS <= 0. TOP, BOT:     649.700073240000
             975.000000000000
   127. ERROR. CELL (1,9,30) THICKNESS <= 0. TOP, BOT:     644.625549320000
             975.000000000000
   128. ERROR. CELL (1,9,31) THICKNESS <= 0. TOP, BOT:     627.635192870000
             975.000000000000
   129. ERROR. CELL (1,9,32) THICKNESS <= 0. TOP, BOT:     620.775939940000
             975.000000000000
   130. ERROR. CELL (1,10,15) THICKNESS <= 0. TOP, BOT:     608.000000000000
              975.000000000000
   131. ERROR. CELL (1,10,16) THICKNESS <= 0. TOP, BOT:     608.000000000000
              975.000000000000
   132. ERROR. CELL (1,10,17) THICKNESS <= 0. TOP, BOT:     610.929260250000
              975.000000000000
   133. ERROR. CELL (1,10,18) THICKNESS <= 0. TOP, BOT:     610.000000000000
              975.000000000000
   134. ERROR. CELL (1,10,19) THICKNESS <= 0. TOP, BOT:     612.767456050000
              975.000000000000
   135. ERROR. CELL (1,10,20) THICKNESS <= 0. TOP, BOT:     617.085083010000
              975.000000000000
   136. ERROR. CELL (1,10,21) THICKNESS <= 0. TOP, BOT:     618.299316410000
              975.000000000000
   137. ERROR. CELL (1,10,22) THICKNESS <= 0. TOP, BOT:     620.000000000000
              975.000000000000
   138. ERROR. CELL (1,10,23) THICKNESS <= 0. TOP, BOT:     621.622619630000
              975.000000000000
   139. ERROR. CELL (1,10,24) THICKNESS <= 0. TOP, BOT:     623.390869140000
              975.000000000000
   140. ERROR. CELL (1,10,25) THICKNESS <= 0. TOP, BOT:     625.210144040000
              975.000000000000
   141. ERROR. CELL (1,10,26) THICKNESS <= 0. TOP, BOT:     648.782287600000
              975.000000000000
   142. ERROR. CELL (1,10,27) THICKNESS <= 0. TOP, BOT:     653.797180180000
              975.000000000000
   143. ERROR. CELL (1,10,28) THICKNESS <= 0. TOP, BOT:     653.221313480000
              975.000000000000
   144. ERROR. CELL (1,10,29) THICKNESS <= 0. TOP, BOT:     648.984741210000
              975.000000000000
   145. ERROR. CELL (1,10,30) THICKNESS <= 0. TOP, BOT:     645.984619140000
              975.000000000000
   146. ERROR. CELL (1,10,31) THICKNESS <= 0. TOP, BOT:     631.101989750000
              975.000000000000
   147. ERROR. CELL (1,10,32) THICKNESS <= 0. TOP, BOT:     621.824646000000
              975.000000000000
   148. ERROR. CELL (1,11,15) THICKNESS <= 0. TOP, BOT:     608.028259280000
              975.000000000000
   149. ERROR. CELL (1,11,16) THICKNESS <= 0. TOP, BOT:     608.153137210000
              975.000000000000
   150. ERROR. CELL (1,11,17) THICKNESS <= 0. TOP, BOT:     610.553344730000
              975.000000000000
   151. ERROR. CELL (1,11,18) THICKNESS <= 0. TOP, BOT:     610.000000000000
              975.000000000000
   152. ERROR. CELL (1,11,19) THICKNESS <= 0. TOP, BOT:     614.601440430000
              975.000000000000
   153. ERROR. CELL (1,11,20) THICKNESS <= 0. TOP, BOT:     618.000000000000
              975.000000000000
   154. ERROR. CELL (1,11,21) THICKNESS <= 0. TOP, BOT:     618.866638180000
              975.000000000000
   155. ERROR. CELL (1,11,22) THICKNESS <= 0. TOP, BOT:     619.738159180000
              975.000000000000
   156. ERROR. CELL (1,11,23) THICKNESS <= 0. TOP, BOT:     621.734069820000
              975.000000000000
   157. ERROR. CELL (1,11,24) THICKNESS <= 0. TOP, BOT:     624.034240720000
              975.000000000000
   158. ERROR. CELL (1,11,25) THICKNESS <= 0. TOP, BOT:     634.625183110000
              975.000000000000
   159. ERROR. CELL (1,11,26) THICKNESS <= 0. TOP, BOT:     654.828186040000
              975.000000000000
   160. ERROR. CELL (1,11,27) THICKNESS <= 0. TOP, BOT:     656.384765620000
              975.000000000000
   161. ERROR. CELL (1,11,28) THICKNESS <= 0. TOP, BOT:     656.994384770000
              975.000000000000
   162. ERROR. CELL (1,11,29) THICKNESS <= 0. TOP, BOT:     652.335693360000
              975.000000000000
   163. ERROR. CELL (1,11,30) THICKNESS <= 0. TOP, BOT:     646.798767090000
              975.000000000000
   164. ERROR. CELL (1,11,31) THICKNESS <= 0. TOP, BOT:     639.707458500000
              975.000000000000
   165. ERROR. CELL (1,11,32) THICKNESS <= 0. TOP, BOT:     622.335449220000
              975.000000000000
   166. ERROR. CELL (1,11,33) THICKNESS <= 0. TOP, BOT:     629.779968260000
              975.000000000000
   167. ERROR. CELL (1,12,15) THICKNESS <= 0. TOP, BOT:     608.184021000000
              975.000000000000
   168. ERROR. CELL (1,12,16) THICKNESS <= 0. TOP, BOT:     608.124572750000
              975.000000000000
   169. ERROR. CELL (1,12,17) THICKNESS <= 0. TOP, BOT:     610.000000000000
              975.000000000000
   170. ERROR. CELL (1,12,18) THICKNESS <= 0. TOP, BOT:     610.175354000000
              975.000000000000
   171. ERROR. CELL (1,12,19) THICKNESS <= 0. TOP, BOT:     618.000000000000
              975.000000000000
   172. ERROR. CELL (1,12,20) THICKNESS <= 0. TOP, BOT:     620.000000000000
              975.000000000000
   173. ERROR. CELL (1,12,21) THICKNESS <= 0. TOP, BOT:     620.000000000000
              975.000000000000
   174. ERROR. CELL (1,12,22) THICKNESS <= 0. TOP, BOT:     620.177001950000
              975.000000000000
   175. ERROR. CELL (1,12,23) THICKNESS <= 0. TOP, BOT:     622.651000980000
              975.000000000000
   176. ERROR. CELL (1,12,24) THICKNESS <= 0. TOP, BOT:     625.023132320000
              975.000000000000
   177. ERROR. CELL (1,12,25) THICKNESS <= 0. TOP, BOT:     639.804626460000
              975.000000000000
   178. ERROR. CELL (1,12,26) THICKNESS <= 0. TOP, BOT:     659.300720210000
              975.000000000000
   179. ERROR. CELL (1,12,27) THICKNESS <= 0. TOP, BOT:     660.923645020000
              975.000000000000
   180. ERROR. CELL (1,12,28) THICKNESS <= 0. TOP, BOT:     662.309326170000
              975.000000000000
   181. ERROR. CELL (1,12,29) THICKNESS <= 0. TOP, BOT:     661.326232910000
              975.000000000000
   182. ERROR. CELL (1,12,30) THICKNESS <= 0. TOP, BOT:     649.227905270000
              975.000000000000
   183. ERROR. CELL (1,12,31) THICKNESS <= 0. TOP, BOT:     645.263244630000
              975.000000000000
   184. ERROR. CELL (1,12,32) THICKNESS <= 0. TOP, BOT:     625.430664060000
              975.000000000000
   185. ERROR. CELL (1,12,33) THICKNESS <= 0. TOP, BOT:     624.000000000000
              975.000000000000
   186. ERROR. CELL (1,12,34) THICKNESS <= 0. TOP, BOT:     633.055725100000
              975.000000000000
   187. ERROR. CELL (1,13,16) THICKNESS <= 0. TOP, BOT:     608.000000000000
              975.000000000000
   188. ERROR. CELL (1,13,17) THICKNESS <= 0. TOP, BOT:     611.782409670000
              975.000000000000
   189. ERROR. CELL (1,13,18) THICKNESS <= 0. TOP, BOT:     612.000000000000
              975.000000000000
   190. ERROR. CELL (1,13,19) THICKNESS <= 0. TOP, BOT:     619.374938960000
              975.000000000000
   191. ERROR. CELL (1,13,20) THICKNESS <= 0. TOP, BOT:     620.000000000000
              975.000000000000
   192. ERROR. CELL (1,13,21) THICKNESS <= 0. TOP, BOT:     620.119934080000
              975.000000000000
   193. ERROR. CELL (1,13,22) THICKNESS <= 0. TOP, BOT:     621.417480470000
              975.000000000000
   194. ERROR. CELL (1,13,23) THICKNESS <= 0. TOP, BOT:     623.632568360000
              975.000000000000
   195. ERROR. CELL (1,13,24) THICKNESS <= 0. TOP, BOT:     625.849182130000
              975.000000000000
   196. ERROR. CELL (1,13,25) THICKNESS <= 0. TOP, BOT:     642.294311520000
              975.000000000000
   197. ERROR. CELL (1,13,26) THICKNESS <= 0. TOP, BOT:     659.395324710000
              975.000000000000
   198. ERROR. CELL (1,13,27) THICKNESS <= 0. TOP, BOT:     671.692321780000
              975.000000000000
   199. ERROR. CELL (1,13,28) THICKNESS <= 0. TOP, BOT:     680.000000000000
              975.000000000000
   200. ERROR. CELL (1,13,29) THICKNESS <= 0. TOP, BOT:     674.783325200000
              975.000000000000
   201. ERROR. CELL (1,13,30) THICKNESS <= 0. TOP, BOT:     651.926452640000
              975.000000000000
   202. ERROR. CELL (1,13,31) THICKNESS <= 0. TOP, BOT:     646.925903320000
              975.000000000000
   203. ERROR. CELL (1,13,32) THICKNESS <= 0. TOP, BOT:     632.588256840000
              975.000000000000
   204. ERROR. CELL (1,13,33) THICKNESS <= 0. TOP, BOT:     628.000000000000
              975.000000000000
   205. ERROR. CELL (1,13,34) THICKNESS <= 0. TOP, BOT:     624.000000000000
              975.000000000000
   206. ERROR. CELL (1,13,35) THICKNESS <= 0. TOP, BOT:     631.169250490000
              975.000000000000
   207. ERROR. CELL (1,14,16) THICKNESS <= 0. TOP, BOT:     608.000000000000
              975.000000000000
   208. ERROR. CELL (1,14,17) THICKNESS <= 0. TOP, BOT:     612.000000000000
              975.000000000000
   209. ERROR. CELL (1,14,18) THICKNESS <= 0. TOP, BOT:     613.529052730000
              975.000000000000
   210. ERROR. CELL (1,14,19) THICKNESS <= 0. TOP, BOT:     620.000000000000
              975.000000000000
   211. ERROR. CELL (1,14,20) THICKNESS <= 0. TOP, BOT:     620.924438480000
              975.000000000000
   212. ERROR. CELL (1,14,21) THICKNESS <= 0. TOP, BOT:     622.246093750000
              975.000000000000
   213. ERROR. CELL (1,14,22) THICKNESS <= 0. TOP, BOT:     623.664855960000
              975.000000000000
   214. ERROR. CELL (1,14,23) THICKNESS <= 0. TOP, BOT:     625.519226070000
              975.000000000000
   215. ERROR. CELL (1,14,24) THICKNESS <= 0. TOP, BOT:     626.556823730000
              975.000000000000
   216. ERROR. CELL (1,14,25) THICKNESS <= 0. TOP, BOT:     648.497436520000
              975.000000000000
   217. ERROR. CELL (1,14,26) THICKNESS <= 0. TOP, BOT:     666.000000000000
              975.000000000000
   218. ERROR. CELL (1,14,27) THICKNESS <= 0. TOP, BOT:     676.362792970000
              975.000000000000
   219. ERROR. CELL (1,14,28) THICKNESS <= 0. TOP, BOT:     680.000000000000
              975.000000000000
   220. ERROR. CELL (1,14,29) THICKNESS <= 0. TOP, BOT:     682.374572750000
              975.000000000000
   221. ERROR. CELL (1,14,30) THICKNESS <= 0. TOP, BOT:     667.985595700000
              975.000000000000
   222. ERROR. CELL (1,14,31) THICKNESS <= 0. TOP, BOT:     653.459533690000
              975.000000000000
   223. ERROR. CELL (1,14,32) THICKNESS <= 0. TOP, BOT:     640.523803710000
              975.000000000000
   224. ERROR. CELL (1,14,33) THICKNESS <= 0. TOP, BOT:     628.796447750000
              975.000000000000
   225. ERROR. CELL (1,14,34) THICKNESS <= 0. TOP, BOT:     628.000000000000
              975.000000000000
   226. ERROR. CELL (1,14,35) THICKNESS <= 0. TOP, BOT:     624.126708980000
              975.000000000000
   227. ERROR. CELL (1,14,36) THICKNESS <= 0. TOP, BOT:     638.133666990000
              975.000000000000
   228. ERROR. CELL (1,15,15) THICKNESS <= 0. TOP, BOT:     608.461303710000
              975.000000000000
   229. ERROR. CELL (1,15,16) THICKNESS <= 0. TOP, BOT:     608.000000000000
              975.000000000000
   230. ERROR. CELL (1,15,17) THICKNESS <= 0. TOP, BOT:     612.000000000000
              975.000000000000
   231. ERROR. CELL (1,15,18) THICKNESS <= 0. TOP, BOT:     616.992431640000
              975.000000000000
   232. ERROR. CELL (1,15,19) THICKNESS <= 0. TOP, BOT:     620.000000000000
              975.000000000000
   233. ERROR. CELL (1,15,20) THICKNESS <= 0. TOP, BOT:     621.654113770000
              975.000000000000
   234. ERROR. CELL (1,15,21) THICKNESS <= 0. TOP, BOT:     624.147888180000
              975.000000000000
   235. ERROR. CELL (1,15,22) THICKNESS <= 0. TOP, BOT:     625.693908690000
              975.000000000000
   236. ERROR. CELL (1,15,23) THICKNESS <= 0. TOP, BOT:     627.394714360000
              975.000000000000
   237. ERROR. CELL (1,15,24) THICKNESS <= 0. TOP, BOT:     629.992797850000
              975.000000000000
   238. ERROR. CELL (1,15,25) THICKNESS <= 0. TOP, BOT:     652.000000000000
              975.000000000000
   239. ERROR. CELL (1,15,26) THICKNESS <= 0. TOP, BOT:     666.636047360000
              975.000000000000
   240. ERROR. CELL (1,15,27) THICKNESS <= 0. TOP, BOT:     678.241760250000
              975.000000000000
   241. ERROR. CELL (1,15,28) THICKNESS <= 0. TOP, BOT:     685.100891110000
              975.000000000000
   242. ERROR. CELL (1,15,29) THICKNESS <= 0. TOP, BOT:     687.011962890000
              975.000000000000
   243. ERROR. CELL (1,15,30) THICKNESS <= 0. TOP, BOT:     685.074584960000
              975.000000000000
   244. ERROR. CELL (1,15,31) THICKNESS <= 0. TOP, BOT:     675.253662110000
              975.000000000000
   245. ERROR. CELL (1,15,32) THICKNESS <= 0. TOP, BOT:     656.184265140000
              975.000000000000
   246. ERROR. CELL (1,15,33) THICKNESS <= 0. TOP, BOT:     631.843750000000
              975.000000000000
   247. ERROR. CELL (1,15,34) THICKNESS <= 0. TOP, BOT:     629.847351070000
              975.000000000000
   248. ERROR. CELL (1,15,35) THICKNESS <= 0. TOP, BOT:     628.626953120000
              975.000000000000
   249. ERROR. CELL (1,15,36) THICKNESS <= 0. TOP, BOT:     633.327697750000
              975.000000000000
   250. ERROR. CELL (1,16,15) THICKNESS <= 0. TOP, BOT:     608.513427730000
              975.000000000000
   251. ERROR. CELL (1,16,16) THICKNESS <= 0. TOP, BOT:     609.337707520000
              975.000000000000
   252. ERROR. CELL (1,16,17) THICKNESS <= 0. TOP, BOT:     612.367431640000
              975.000000000000
   253. ERROR. CELL (1,16,18) THICKNESS <= 0. TOP, BOT:     620.000000000000
              975.000000000000
   254. ERROR. CELL (1,16,19) THICKNESS <= 0. TOP, BOT:     620.768554690000
              975.000000000000
   255. ERROR. CELL (1,16,20) THICKNESS <= 0. TOP, BOT:     623.415344240000
              975.000000000000
   256. ERROR. CELL (1,16,21) THICKNESS <= 0. TOP, BOT:     625.612243650000
              975.000000000000
   257. ERROR. CELL (1,16,22) THICKNESS <= 0. TOP, BOT:     629.377624510000
              975.000000000000
   258. ERROR. CELL (1,16,23) THICKNESS <= 0. TOP, BOT:     642.971984860000
              975.000000000000
   259. ERROR. CELL (1,16,24) THICKNESS <= 0. TOP, BOT:     639.124694820000
              975.000000000000
   260. ERROR. CELL (1,16,25) THICKNESS <= 0. TOP, BOT:     651.910095210000
              975.000000000000
   261. ERROR. CELL (1,16,26) THICKNESS <= 0. TOP, BOT:     668.540222170000
              975.000000000000
   262. ERROR. CELL (1,16,27) THICKNESS <= 0. TOP, BOT:     686.177795410000
              975.000000000000
   263. ERROR. CELL (1,16,28) THICKNESS <= 0. TOP, BOT:     691.275329590000
              975.000000000000
   264. ERROR. CELL (1,16,29) THICKNESS <= 0. TOP, BOT:     692.321838380000
              975.000000000000
   265. ERROR. CELL (1,16,30) THICKNESS <= 0. TOP, BOT:     688.456359860000
              975.000000000000
   266. ERROR. CELL (1,16,31) THICKNESS <= 0. TOP, BOT:     684.249633790000
              975.000000000000
   267. ERROR. CELL (1,16,32) THICKNESS <= 0. TOP, BOT:     681.439208980000
              975.000000000000
   268. ERROR. CELL (1,16,33) THICKNESS <= 0. TOP, BOT:     652.994323730000
              975.000000000000
   269. ERROR. CELL (1,16,34) THICKNESS <= 0. TOP, BOT:     633.839050290000
              975.000000000000
   270. ERROR. CELL (1,16,35) THICKNESS <= 0. TOP, BOT:     628.423034670000
              975.000000000000
   271. ERROR. CELL (1,16,36) THICKNESS <= 0. TOP, BOT:     632.371887210000
              975.000000000000
   272. ERROR. CELL (1,17,14) THICKNESS <= 0. TOP, BOT:     622.000000000000
              975.000000000000
   273. ERROR. CELL (1,17,15) THICKNESS <= 0. TOP, BOT:     608.992248540000
              975.000000000000
   274. ERROR. CELL (1,17,16) THICKNESS <= 0. TOP, BOT:     610.000000000000
              975.000000000000
   275. ERROR. CELL (1,17,17) THICKNESS <= 0. TOP, BOT:     614.000000000000
              975.000000000000
   276. ERROR. CELL (1,17,18) THICKNESS <= 0. TOP, BOT:     618.000000000000
              975.000000000000
   277. ERROR. CELL (1,17,19) THICKNESS <= 0. TOP, BOT:     622.938049320000
              975.000000000000
   278. ERROR. CELL (1,17,20) THICKNESS <= 0. TOP, BOT:     626.160644530000
              975.000000000000
   279. ERROR. CELL (1,17,21) THICKNESS <= 0. TOP, BOT:     630.000000000000
              975.000000000000
   280. ERROR. CELL (1,17,22) THICKNESS <= 0. TOP, BOT:     630.000000000000
              975.000000000000
   281. ERROR. CELL (1,17,23) THICKNESS <= 0. TOP, BOT:     641.955139160000
              975.000000000000
   282. ERROR. CELL (1,17,24) THICKNESS <= 0. TOP, BOT:     650.253601070000
              975.000000000000
   283. ERROR. CELL (1,17,25) THICKNESS <= 0. TOP, BOT:     655.725769040000
              975.000000000000
   284. ERROR. CELL (1,17,26) THICKNESS <= 0. TOP, BOT:     668.493347170000
              975.000000000000
   285. ERROR. CELL (1,17,27) THICKNESS <= 0. TOP, BOT:     688.925048830000
              975.000000000000
   286. ERROR. CELL (1,17,28) THICKNESS <= 0. TOP, BOT:     700.443298340000
              975.000000000000
   287. ERROR. CELL (1,17,29) THICKNESS <= 0. TOP, BOT:     702.000000000000
              975.000000000000
   288. ERROR. CELL (1,17,30) THICKNESS <= 0. TOP, BOT:     701.280151370000
              975.000000000000
   289. ERROR. CELL (1,17,31) THICKNESS <= 0. TOP, BOT:     696.679687500000
              975.000000000000
   290. ERROR. CELL (1,17,32) THICKNESS <= 0. TOP, BOT:     692.827026370000
              975.000000000000
   291. ERROR. CELL (1,17,33) THICKNESS <= 0. TOP, BOT:     682.521728520000
              975.000000000000
   292. ERROR. CELL (1,17,34) THICKNESS <= 0. TOP, BOT:     643.809021000000
              975.000000000000
   293. ERROR. CELL (1,17,35) THICKNESS <= 0. TOP, BOT:     628.000000000000
              975.000000000000
   294. ERROR. CELL (1,18,14) THICKNESS <= 0. TOP, BOT:     624.000000000000
              975.000000000000
   295. ERROR. CELL (1,18,15) THICKNESS <= 0. TOP, BOT:     609.905273440000
              975.000000000000
   296. ERROR. CELL (1,18,16) THICKNESS <= 0. TOP, BOT:     610.000000000000
              975.000000000000
   297. ERROR. CELL (1,18,17) THICKNESS <= 0. TOP, BOT:     618.000000000000
              975.000000000000
   298. ERROR. CELL (1,18,18) THICKNESS <= 0. TOP, BOT:     627.852416990000
              975.000000000000
   299. ERROR. CELL (1,18,19) THICKNESS <= 0. TOP, BOT:     626.000000000000
              975.000000000000
   300. ERROR. CELL (1,18,20) THICKNESS <= 0. TOP, BOT:     632.965087890000
              975.000000000000
   301. ERROR. CELL (1,18,21) THICKNESS <= 0. TOP, BOT:     633.615173340000
              975.000000000000
   302. ERROR. CELL (1,18,22) THICKNESS <= 0. TOP, BOT:     636.766906740000
              975.000000000000
   303. ERROR. CELL (1,18,23) THICKNESS <= 0. TOP, BOT:     641.699951170000
              975.000000000000
   304. ERROR. CELL (1,18,24) THICKNESS <= 0. TOP, BOT:     644.000000000000
              975.000000000000
   305. ERROR. CELL (1,18,25) THICKNESS <= 0. TOP, BOT:     648.449035640000
              975.000000000000
   306. ERROR. CELL (1,18,26) THICKNESS <= 0. TOP, BOT:     668.915954590000
              975.000000000000
   307. ERROR. CELL (1,18,27) THICKNESS <= 0. TOP, BOT:     683.191040040000
              975.000000000000
   308. ERROR. CELL (1,18,28) THICKNESS <= 0. TOP, BOT:     698.692871090000
              975.000000000000
   309. ERROR. CELL (1,18,29) THICKNESS <= 0. TOP, BOT:     712.542907710000
              975.000000000000
   310. ERROR. CELL (1,18,30) THICKNESS <= 0. TOP, BOT:     712.000000000000
              975.000000000000
   311. ERROR. CELL (1,18,31) THICKNESS <= 0. TOP, BOT:     713.278686520000
              975.000000000000
   312. ERROR. CELL (1,18,32) THICKNESS <= 0. TOP, BOT:     706.985839840000
              975.000000000000
   313. ERROR. CELL (1,18,33) THICKNESS <= 0. TOP, BOT:     693.987182620000
              975.000000000000
   314. ERROR. CELL (1,18,34) THICKNESS <= 0. TOP, BOT:     664.033264160000
              975.000000000000
   315. ERROR. CELL (1,18,35) THICKNESS <= 0. TOP, BOT:     628.000000000000
              975.000000000000
   316. ERROR. CELL (1,18,36) THICKNESS <= 0. TOP, BOT:     631.959533690000
              975.000000000000
   317. ERROR. CELL (1,18,37) THICKNESS <= 0. TOP, BOT:     632.149597170000
              975.000000000000
   318. ERROR. CELL (1,18,38) THICKNESS <= 0. TOP, BOT:     632.797790530000
              975.000000000000
   319. ERROR. CELL (1,18,39) THICKNESS <= 0. TOP, BOT:     633.335327150000
              975.000000000000
   320. ERROR. CELL (1,18,40) THICKNESS <= 0. TOP, BOT:     636.341308590000
              975.000000000000
   321. ERROR. CELL (1,18,41) THICKNESS <= 0. TOP, BOT:     638.000000000000
              975.000000000000
   322. ERROR. CELL (1,18,42) THICKNESS <= 0. TOP, BOT:     638.000000000000
              975.000000000000
   323. ERROR. CELL (1,18,43) THICKNESS <= 0. TOP, BOT:     638.000000000000
              975.000000000000
   324. ERROR. CELL (1,18,44) THICKNESS <= 0. TOP, BOT:     638.000000000000
              975.000000000000
   325. ERROR. CELL (1,18,45) THICKNESS <= 0. TOP, BOT:     638.000000000000
              975.000000000000
   326. ERROR. CELL (1,18,46) THICKNESS <= 0. TOP, BOT:     641.480529790000
              975.000000000000
   327. ERROR. CELL (1,19,14) THICKNESS <= 0. TOP, BOT:     622.000000000000
              975.000000000000
   328. ERROR. CELL (1,19,15) THICKNESS <= 0. TOP, BOT:     610.000000000000
              975.000000000000
   329. ERROR. CELL (1,19,16) THICKNESS <= 0. TOP, BOT:     610.000000000000
              975.000000000000
   330. ERROR. CELL (1,19,17) THICKNESS <= 0. TOP, BOT:     623.218139650000
              975.000000000000
   331. ERROR. CELL (1,19,18) THICKNESS <= 0. TOP, BOT:     635.128173830000
              975.000000000000
   332. ERROR. CELL (1,19,19) THICKNESS <= 0. TOP, BOT:     638.000000000000
              975.000000000000
   333. ERROR. CELL (1,19,20) THICKNESS <= 0. TOP, BOT:     637.005920410000
              975.000000000000
   334. ERROR. CELL (1,19,21) THICKNESS <= 0. TOP, BOT:     637.148742680000
              975.000000000000
   335. ERROR. CELL (1,19,22) THICKNESS <= 0. TOP, BOT:     638.201354980000
              975.000000000000
   336. ERROR. CELL (1,19,23) THICKNESS <= 0. TOP, BOT:     645.125610350000
              975.000000000000
   337. ERROR. CELL (1,19,24) THICKNESS <= 0. TOP, BOT:     655.520263670000
              975.000000000000
   338. ERROR. CELL (1,19,25) THICKNESS <= 0. TOP, BOT:     652.059082030000
              975.000000000000
   339. ERROR. CELL (1,19,26) THICKNESS <= 0. TOP, BOT:     668.944519040000
              975.000000000000
   340. ERROR. CELL (1,19,27) THICKNESS <= 0. TOP, BOT:     683.776611330000
              975.000000000000
   341. ERROR. CELL (1,19,28) THICKNESS <= 0. TOP, BOT:     696.000000000000
              975.000000000000
   342. ERROR. CELL (1,19,29) THICKNESS <= 0. TOP, BOT:     701.995788570000
              975.000000000000
   343. ERROR. CELL (1,19,30) THICKNESS <= 0. TOP, BOT:     710.569702150000
              975.000000000000
   344. ERROR. CELL (1,19,31) THICKNESS <= 0. TOP, BOT:     718.120910640000
              975.000000000000
   345. ERROR. CELL (1,19,32) THICKNESS <= 0. TOP, BOT:     722.000000000000
              975.000000000000
   346. ERROR. CELL (1,19,33) THICKNESS <= 0. TOP, BOT:     712.226135250000
              975.000000000000
   347. ERROR. CELL (1,19,34) THICKNESS <= 0. TOP, BOT:     685.984802250000
              975.000000000000
   348. ERROR. CELL (1,19,35) THICKNESS <= 0. TOP, BOT:     647.086486820000
              975.000000000000
   349. ERROR. CELL (1,19,36) THICKNESS <= 0. TOP, BOT:     635.504028320000
              975.000000000000
   350. ERROR. CELL (1,19,37) THICKNESS <= 0. TOP, BOT:     632.155822750000
              975.000000000000
   351. ERROR. CELL (1,19,38) THICKNESS <= 0. TOP, BOT:     632.210876460000
              975.000000000000
   352. ERROR. CELL (1,19,39) THICKNESS <= 0. TOP, BOT:     632.324035640000
              975.000000000000
   353. ERROR. CELL (1,19,40) THICKNESS <= 0. TOP, BOT:     632.000000000000
              975.000000000000
   354. ERROR. CELL (1,19,41) THICKNESS <= 0. TOP, BOT:     635.033569340000
              975.000000000000
   355. ERROR. CELL (1,19,42) THICKNESS <= 0. TOP, BOT:     638.000000000000
              975.000000000000
   356. ERROR. CELL (1,19,43) THICKNESS <= 0. TOP, BOT:     638.236938480000
              975.000000000000
   357. ERROR. CELL (1,19,44) THICKNESS <= 0. TOP, BOT:     639.423645020000
              975.000000000000
   358. ERROR. CELL (1,19,45) THICKNESS <= 0. TOP, BOT:     639.180908200000
              975.000000000000
   359. ERROR. CELL (1,19,46) THICKNESS <= 0. TOP, BOT:     638.546447750000
              975.000000000000
   360. ERROR. CELL (1,19,47) THICKNESS <= 0. TOP, BOT:     640.729309080000
              975.000000000000
   361. ERROR. CELL (1,20,14) THICKNESS <= 0. TOP, BOT:     610.069824220000
              975.000000000000
   362. ERROR. CELL (1,20,15) THICKNESS <= 0. TOP, BOT:     610.121398930000
              975.000000000000
   363. ERROR. CELL (1,20,16) THICKNESS <= 0. TOP, BOT:     611.157531740000
              975.000000000000
   364. ERROR. CELL (1,20,17) THICKNESS <= 0. TOP, BOT:     613.826477050000
              975.000000000000
   365. ERROR. CELL (1,20,18) THICKNESS <= 0. TOP, BOT:     638.295043950000
              975.000000000000
   366. ERROR. CELL (1,20,19) THICKNESS <= 0. TOP, BOT:     641.141479490000
              975.000000000000
   367. ERROR. CELL (1,20,20) THICKNESS <= 0. TOP, BOT:     640.605896000000
              975.000000000000
   368. ERROR. CELL (1,20,21) THICKNESS <= 0. TOP, BOT:     636.000000000000
              975.000000000000
   369. ERROR. CELL (1,20,22) THICKNESS <= 0. TOP, BOT:     638.723327640000
              975.000000000000
   370. ERROR. CELL (1,20,23) THICKNESS <= 0. TOP, BOT:     645.678894040000
              975.000000000000
   371. ERROR. CELL (1,20,24) THICKNESS <= 0. TOP, BOT:     664.680786130000
              975.000000000000
   372. ERROR. CELL (1,20,25) THICKNESS <= 0. TOP, BOT:     661.170410160000
              975.000000000000
   373. ERROR. CELL (1,20,26) THICKNESS <= 0. TOP, BOT:     669.483215330000
              975.000000000000
   374. ERROR. CELL (1,20,27) THICKNESS <= 0. TOP, BOT:     680.000000000000
              975.000000000000
   375. ERROR. CELL (1,20,28) THICKNESS <= 0. TOP, BOT:     689.459106450000
              975.000000000000
   376. ERROR. CELL (1,20,29) THICKNESS <= 0. TOP, BOT:     707.478820800000
              975.000000000000
   377. ERROR. CELL (1,20,30) THICKNESS <= 0. TOP, BOT:     714.781127930000
              975.000000000000
   378. ERROR. CELL (1,20,31) THICKNESS <= 0. TOP, BOT:     721.623107910000
              975.000000000000
   379. ERROR. CELL (1,20,32) THICKNESS <= 0. TOP, BOT:     733.270141600000
              975.000000000000
   380. ERROR. CELL (1,20,33) THICKNESS <= 0. TOP, BOT:     721.194885250000
              975.000000000000
   381. ERROR. CELL (1,20,34) THICKNESS <= 0. TOP, BOT:     696.000000000000
              975.000000000000
   382. ERROR. CELL (1,20,35) THICKNESS <= 0. TOP, BOT:     675.389587400000
              975.000000000000
   383. ERROR. CELL (1,20,36) THICKNESS <= 0. TOP, BOT:     646.958068850000
              975.000000000000
   384. ERROR. CELL (1,20,37) THICKNESS <= 0. TOP, BOT:     653.520935060000
              975.000000000000
   385. ERROR. CELL (1,20,38) THICKNESS <= 0. TOP, BOT:     641.020568850000
              975.000000000000
   386. ERROR. CELL (1,20,39) THICKNESS <= 0. TOP, BOT:     638.892089840000
              975.000000000000
   387. ERROR. CELL (1,20,40) THICKNESS <= 0. TOP, BOT:     638.327880860000
              975.000000000000
   388. ERROR. CELL (1,20,41) THICKNESS <= 0. TOP, BOT:     640.559875490000
              975.000000000000
   389. ERROR. CELL (1,20,42) THICKNESS <= 0. TOP, BOT:     641.031066890000
              975.000000000000
   390. ERROR. CELL (1,20,43) THICKNESS <= 0. TOP, BOT:     642.871887210000
              975.000000000000
   391. ERROR. CELL (1,20,44) THICKNESS <= 0. TOP, BOT:     643.491760250000
              975.000000000000
   392. ERROR. CELL (1,20,45) THICKNESS <= 0. TOP, BOT:     643.015502930000
              975.000000000000
   393. ERROR. CELL (1,20,46) THICKNESS <= 0. TOP, BOT:     647.324890140000
              975.000000000000
   394. ERROR. CELL (1,20,47) THICKNESS <= 0. TOP, BOT:     645.063232420000
              975.000000000000
   395. ERROR. CELL (1,20,48) THICKNESS <= 0. TOP, BOT:     640.000000000000
              975.000000000000
   396. ERROR. CELL (1,20,49) THICKNESS <= 0. TOP, BOT:     645.266418460000
              975.000000000000
   397. ERROR. CELL (1,21,14) THICKNESS <= 0. TOP, BOT:     610.460510250000
              975.000000000000
   398. ERROR. CELL (1,21,15) THICKNESS <= 0. TOP, BOT:     612.000000000000
              975.000000000000
   399. ERROR. CELL (1,21,16) THICKNESS <= 0. TOP, BOT:     612.000000000000
              975.000000000000
   400. ERROR. CELL (1,21,17) THICKNESS <= 0. TOP, BOT:     612.000000000000
              975.000000000000
   401. ERROR. CELL (1,21,18) THICKNESS <= 0. TOP, BOT:     633.547302250000
              975.000000000000
   402. ERROR. CELL (1,21,19) THICKNESS <= 0. TOP, BOT:     644.000000000000
              975.000000000000
   403. ERROR. CELL (1,21,20) THICKNESS <= 0. TOP, BOT:     644.000000000000
              975.000000000000
   404. ERROR. CELL (1,21,21) THICKNESS <= 0. TOP, BOT:     637.377380370000
              975.000000000000
   405. ERROR. CELL (1,21,22) THICKNESS <= 0. TOP, BOT:     639.768005370000
              975.000000000000
   406. ERROR. CELL (1,21,23) THICKNESS <= 0. TOP, BOT:     645.745849610000
              975.000000000000
   407. ERROR. CELL (1,21,24) THICKNESS <= 0. TOP, BOT:     663.504882810000
              975.000000000000
   408. ERROR. CELL (1,21,25) THICKNESS <= 0. TOP, BOT:     672.000000000000
              975.000000000000
   409. ERROR. CELL (1,21,26) THICKNESS <= 0. TOP, BOT:     671.379455570000
              975.000000000000
   410. ERROR. CELL (1,21,27) THICKNESS <= 0. TOP, BOT:     690.137695310000
              975.000000000000
   411. ERROR. CELL (1,21,28) THICKNESS <= 0. TOP, BOT:     699.524719240000
              975.000000000000
   412. ERROR. CELL (1,21,29) THICKNESS <= 0. TOP, BOT:     706.151794430000
              975.000000000000
   413. ERROR. CELL (1,21,30) THICKNESS <= 0. TOP, BOT:     718.133239750000
              975.000000000000
   414. ERROR. CELL (1,21,31) THICKNESS <= 0. TOP, BOT:     736.642028810000
              975.000000000000
   415. ERROR. CELL (1,21,32) THICKNESS <= 0. TOP, BOT:     742.939697270000
              975.000000000000
   416. ERROR. CELL (1,21,33) THICKNESS <= 0. TOP, BOT:     730.121032710000
              975.000000000000
   417. ERROR. CELL (1,21,34) THICKNESS <= 0. TOP, BOT:     708.601867680000
              975.000000000000
   418. ERROR. CELL (1,21,35) THICKNESS <= 0. TOP, BOT:     680.141784670000
              975.000000000000
   419. ERROR. CELL (1,21,36) THICKNESS <= 0. TOP, BOT:     667.639831540000
              975.000000000000
   420. ERROR. CELL (1,21,37) THICKNESS <= 0. TOP, BOT:     668.643371580000
              975.000000000000
   421. ERROR. CELL (1,21,38) THICKNESS <= 0. TOP, BOT:     660.154541020000
              975.000000000000
   422. ERROR. CELL (1,21,39) THICKNESS <= 0. TOP, BOT:     661.418518070000
              975.000000000000
   423. ERROR. CELL (1,21,40) THICKNESS <= 0. TOP, BOT:     660.562622070000
              975.000000000000
   424. ERROR. CELL (1,21,41) THICKNESS <= 0. TOP, BOT:     654.291259770000
              975.000000000000
   425. ERROR. CELL (1,21,42) THICKNESS <= 0. TOP, BOT:     653.097229000000
              975.000000000000
   426. ERROR. CELL (1,21,43) THICKNESS <= 0. TOP, BOT:     652.000000000000
              975.000000000000
   427. ERROR. CELL (1,21,44) THICKNESS <= 0. TOP, BOT:     651.469665530000
              975.000000000000
   428. ERROR. CELL (1,21,45) THICKNESS <= 0. TOP, BOT:     648.278198240000
              975.000000000000
   429. ERROR. CELL (1,21,46) THICKNESS <= 0. TOP, BOT:     648.000000000000
              975.000000000000
   430. ERROR. CELL (1,21,47) THICKNESS <= 0. TOP, BOT:     648.000000000000
              975.000000000000
   431. ERROR. CELL (1,21,48) THICKNESS <= 0. TOP, BOT:     646.003234860000
              975.000000000000
   432. ERROR. CELL (1,21,49) THICKNESS <= 0. TOP, BOT:     640.000000000000
              975.000000000000
   433. ERROR. CELL (1,22,14) THICKNESS <= 0. TOP, BOT:     610.929992680000
              975.000000000000
   434. ERROR. CELL (1,22,15) THICKNESS <= 0. TOP, BOT:     612.000000000000
              975.000000000000
   435. ERROR. CELL (1,22,16) THICKNESS <= 0. TOP, BOT:     612.000000000000
              975.000000000000
   436. ERROR. CELL (1,22,17) THICKNESS <= 0. TOP, BOT:     613.562866210000
              975.000000000000
   437. ERROR. CELL (1,22,18) THICKNESS <= 0. TOP, BOT:     628.859497070000
              975.000000000000
   438. ERROR. CELL (1,22,19) THICKNESS <= 0. TOP, BOT:     646.942016600000
              975.000000000000
   439. ERROR. CELL (1,22,20) THICKNESS <= 0. TOP, BOT:     647.421325680000
              975.000000000000
   440. ERROR. CELL (1,22,21) THICKNESS <= 0. TOP, BOT:     642.454833980000
              975.000000000000
   441. ERROR. CELL (1,22,22) THICKNESS <= 0. TOP, BOT:     639.625488280000
              975.000000000000
   442. ERROR. CELL (1,22,23) THICKNESS <= 0. TOP, BOT:     646.304748540000
              975.000000000000
   443. ERROR. CELL (1,22,24) THICKNESS <= 0. TOP, BOT:     659.486328120000
              975.000000000000
   444. ERROR. CELL (1,22,25) THICKNESS <= 0. TOP, BOT:     672.679565430000
              975.000000000000
   445. ERROR. CELL (1,22,26) THICKNESS <= 0. TOP, BOT:     676.438049320000
              975.000000000000
   446. ERROR. CELL (1,22,27) THICKNESS <= 0. TOP, BOT:     686.000000000000
              975.000000000000
   447. ERROR. CELL (1,22,28) THICKNESS <= 0. TOP, BOT:     700.020874020000
              975.000000000000
   448. ERROR. CELL (1,22,29) THICKNESS <= 0. TOP, BOT:     708.672241210000
              975.000000000000
   449. ERROR. CELL (1,22,30) THICKNESS <= 0. TOP, BOT:     716.382690430000
              975.000000000000
   450. ERROR. CELL (1,22,31) THICKNESS <= 0. TOP, BOT:     733.757019040000
              975.000000000000
   451. ERROR. CELL (1,22,32) THICKNESS <= 0. TOP, BOT:     746.000000000000
              975.000000000000
   452. ERROR. CELL (1,22,33) THICKNESS <= 0. TOP, BOT:     732.365722660000
              975.000000000000
   453. ERROR. CELL (1,22,34) THICKNESS <= 0. TOP, BOT:     715.947509770000
              975.000000000000
   454. ERROR. CELL (1,22,35) THICKNESS <= 0. TOP, BOT:     693.628540040000
              975.000000000000
   455. ERROR. CELL (1,22,36) THICKNESS <= 0. TOP, BOT:     690.368896480000
              975.000000000000
   456. ERROR. CELL (1,22,37) THICKNESS <= 0. TOP, BOT:     690.000000000000
              975.000000000000
   457. ERROR. CELL (1,22,38) THICKNESS <= 0. TOP, BOT:     686.965759280000
              975.000000000000
   458. ERROR. CELL (1,22,39) THICKNESS <= 0. TOP, BOT:     683.033020020000
              975.000000000000
   459. ERROR. CELL (1,22,40) THICKNESS <= 0. TOP, BOT:     680.000000000000
              975.000000000000
   460. ERROR. CELL (1,22,41) THICKNESS <= 0. TOP, BOT:     676.048828120000
              975.000000000000
   461. ERROR. CELL (1,22,42) THICKNESS <= 0. TOP, BOT:     666.621215820000
              975.000000000000
   462. ERROR. CELL (1,22,43) THICKNESS <= 0. TOP, BOT:     656.169067380000
              975.000000000000
   463. ERROR. CELL (1,22,44) THICKNESS <= 0. TOP, BOT:     656.461853030000
              975.000000000000
   464. ERROR. CELL (1,22,45) THICKNESS <= 0. TOP, BOT:     652.000000000000
              975.000000000000
   465. ERROR. CELL (1,22,46) THICKNESS <= 0. TOP, BOT:     650.526123050000
              975.000000000000
   466. ERROR. CELL (1,22,47) THICKNESS <= 0. TOP, BOT:     648.129699710000
              975.000000000000
   467. ERROR. CELL (1,22,48) THICKNESS <= 0. TOP, BOT:     648.000000000000
              975.000000000000
   468. ERROR. CELL (1,22,49) THICKNESS <= 0. TOP, BOT:     642.000000000000
              975.000000000000
   469. ERROR. CELL (1,23,14) THICKNESS <= 0. TOP, BOT:     611.461120610000
              975.000000000000
   470. ERROR. CELL (1,23,15) THICKNESS <= 0. TOP, BOT:     612.000000000000
              975.000000000000
   471. ERROR. CELL (1,23,16) THICKNESS <= 0. TOP, BOT:     612.920776370000
              975.000000000000
   472. ERROR. CELL (1,23,17) THICKNESS <= 0. TOP, BOT:     614.000000000000
              975.000000000000
   473. ERROR. CELL (1,23,18) THICKNESS <= 0. TOP, BOT:     630.580749510000
              975.000000000000
   474. ERROR. CELL (1,23,19) THICKNESS <= 0. TOP, BOT:     648.732299800000
              975.000000000000
   475. ERROR. CELL (1,23,20) THICKNESS <= 0. TOP, BOT:     650.232421880000
              975.000000000000
   476. ERROR. CELL (1,23,21) THICKNESS <= 0. TOP, BOT:     649.479064940000
              975.000000000000
   477. ERROR. CELL (1,23,22) THICKNESS <= 0. TOP, BOT:     644.538330080000
              975.000000000000
   478. ERROR. CELL (1,23,23) THICKNESS <= 0. TOP, BOT:     647.016052250000
              975.000000000000
   479. ERROR. CELL (1,23,24) THICKNESS <= 0. TOP, BOT:     656.694274900000
              975.000000000000
   480. ERROR. CELL (1,23,25) THICKNESS <= 0. TOP, BOT:     677.918701170000
              975.000000000000
   481. ERROR. CELL (1,23,26) THICKNESS <= 0. TOP, BOT:     684.730834960000
              975.000000000000
   482. ERROR. CELL (1,23,27) THICKNESS <= 0. TOP, BOT:     697.807739260000
              975.000000000000
   483. ERROR. CELL (1,23,28) THICKNESS <= 0. TOP, BOT:     706.680664060000
              975.000000000000
   484. ERROR. CELL (1,23,29) THICKNESS <= 0. TOP, BOT:     714.203796390000
              975.000000000000
   485. ERROR. CELL (1,23,30) THICKNESS <= 0. TOP, BOT:     720.017333980000
              975.000000000000
   486. ERROR. CELL (1,23,31) THICKNESS <= 0. TOP, BOT:     731.669189450000
              975.000000000000
   487. ERROR. CELL (1,23,32) THICKNESS <= 0. TOP, BOT:     746.000000000000
              975.000000000000
   488. ERROR. CELL (1,23,33) THICKNESS <= 0. TOP, BOT:     741.906127930000
              975.000000000000
   489. ERROR. CELL (1,23,34) THICKNESS <= 0. TOP, BOT:     716.167114260000
              975.000000000000
   490. ERROR. CELL (1,23,35) THICKNESS <= 0. TOP, BOT:     702.000000000000
              975.000000000000
   491. ERROR. CELL (1,23,36) THICKNESS <= 0. TOP, BOT:     697.301940920000
              975.000000000000
   492. ERROR. CELL (1,23,37) THICKNESS <= 0. TOP, BOT:     694.323181150000
              975.000000000000
   493. ERROR. CELL (1,23,38) THICKNESS <= 0. TOP, BOT:     694.963867190000
              975.000000000000
   494. ERROR. CELL (1,23,39) THICKNESS <= 0. TOP, BOT:     700.854675290000
              975.000000000000
   495. ERROR. CELL (1,23,40) THICKNESS <= 0. TOP, BOT:     693.265563960000
              975.000000000000
   496. ERROR. CELL (1,23,41) THICKNESS <= 0. TOP, BOT:     683.812561040000
              975.000000000000
   497. ERROR. CELL (1,23,42) THICKNESS <= 0. TOP, BOT:     669.514160160000
              975.000000000000
   498. ERROR. CELL (1,23,43) THICKNESS <= 0. TOP, BOT:     666.646301270000
              975.000000000000
   499. ERROR. CELL (1,23,44) THICKNESS <= 0. TOP, BOT:     661.565490720000
              975.000000000000
   500. ERROR. CELL (1,23,45) THICKNESS <= 0. TOP, BOT:     654.781921390000
              975.000000000000
   501. ERROR. CELL (1,23,46) THICKNESS <= 0. TOP, BOT:     652.000000000000
              975.000000000000
   502. ERROR. CELL (1,23,47) THICKNESS <= 0. TOP, BOT:     650.421203610000
              975.000000000000
   503. ERROR. CELL (1,23,48) THICKNESS <= 0. TOP, BOT:     648.000000000000
              975.000000000000
   504. ERROR. CELL (1,23,49) THICKNESS <= 0. TOP, BOT:     642.050292970000
              975.000000000000
   505. ERROR. CELL (1,24,14) THICKNESS <= 0. TOP, BOT:     612.000000000000
              975.000000000000
   506. ERROR. CELL (1,24,15) THICKNESS <= 0. TOP, BOT:     612.015991210000
              975.000000000000
   507. ERROR. CELL (1,24,16) THICKNESS <= 0. TOP, BOT:     613.425048830000
              975.000000000000
   508. ERROR. CELL (1,24,17) THICKNESS <= 0. TOP, BOT:     630.093566890000
              975.000000000000
   509. ERROR. CELL (1,24,18) THICKNESS <= 0. TOP, BOT:     634.574096680000
              975.000000000000
   510. ERROR. CELL (1,24,19) THICKNESS <= 0. TOP, BOT:     650.570861820000
              975.000000000000
   511. ERROR. CELL (1,24,20) THICKNESS <= 0. TOP, BOT:     656.584228520000
              975.000000000000
   512. ERROR. CELL (1,24,21) THICKNESS <= 0. TOP, BOT:     657.831359860000
              975.000000000000
   513. ERROR. CELL (1,24,22) THICKNESS <= 0. TOP, BOT:     644.291381840000
              975.000000000000
   514. ERROR. CELL (1,24,23) THICKNESS <= 0. TOP, BOT:     649.570800780000
              975.000000000000
   515. ERROR. CELL (1,24,24) THICKNESS <= 0. TOP, BOT:     656.698425290000
              975.000000000000
   516. ERROR. CELL (1,24,25) THICKNESS <= 0. TOP, BOT:     672.937011720000
              975.000000000000
   517. ERROR. CELL (1,24,26) THICKNESS <= 0. TOP, BOT:     695.165344240000
              975.000000000000
   518. ERROR. CELL (1,24,27) THICKNESS <= 0. TOP, BOT:     710.431152340000
              975.000000000000
   519. ERROR. CELL (1,24,28) THICKNESS <= 0. TOP, BOT:     722.751464840000
              975.000000000000
   520. ERROR. CELL (1,24,29) THICKNESS <= 0. TOP, BOT:     725.171081540000
              975.000000000000
   521. ERROR. CELL (1,24,30) THICKNESS <= 0. TOP, BOT:     731.911010740000
              975.000000000000
   522. ERROR. CELL (1,24,31) THICKNESS <= 0. TOP, BOT:     740.706054690000
              975.000000000000
   523. ERROR. CELL (1,24,32) THICKNESS <= 0. TOP, BOT:     744.296630860000
              975.000000000000
   524. ERROR. CELL (1,24,33) THICKNESS <= 0. TOP, BOT:     730.263977050000
              975.000000000000
   525. ERROR. CELL (1,24,34) THICKNESS <= 0. TOP, BOT:     714.960815430000
              975.000000000000
   526. ERROR. CELL (1,24,35) THICKNESS <= 0. TOP, BOT:     706.246765140000
              975.000000000000
   527. ERROR. CELL (1,24,36) THICKNESS <= 0. TOP, BOT:     700.000000000000
              975.000000000000
   528. ERROR. CELL (1,24,37) THICKNESS <= 0. TOP, BOT:     703.973266600000
              975.000000000000
   529. ERROR. CELL (1,24,38) THICKNESS <= 0. TOP, BOT:     705.881286620000
              975.000000000000
   530. ERROR. CELL (1,24,39) THICKNESS <= 0. TOP, BOT:     710.000000000000
              975.000000000000
   531. ERROR. CELL (1,24,40) THICKNESS <= 0. TOP, BOT:     703.359191890000
              975.000000000000
   532. ERROR. CELL (1,24,41) THICKNESS <= 0. TOP, BOT:     688.657470700000
              975.000000000000
   533. ERROR. CELL (1,24,42) THICKNESS <= 0. TOP, BOT:     672.000000000000
              975.000000000000
   534. ERROR. CELL (1,24,43) THICKNESS <= 0. TOP, BOT:     672.260681150000
              975.000000000000
   535. ERROR. CELL (1,24,44) THICKNESS <= 0. TOP, BOT:     671.571411130000
              975.000000000000
   536. ERROR. CELL (1,24,45) THICKNESS <= 0. TOP, BOT:     662.928894040000
              975.000000000000
   537. ERROR. CELL (1,24,46) THICKNESS <= 0. TOP, BOT:     658.000000000000
              975.000000000000
   538. ERROR. CELL (1,24,47) THICKNESS <= 0. TOP, BOT:     649.747619630000
              975.000000000000
   539. ERROR. CELL (1,24,48) THICKNESS <= 0. TOP, BOT:     647.176086430000
              975.000000000000
   540. ERROR. CELL (1,24,49) THICKNESS <= 0. TOP, BOT:     644.000000000000
              975.000000000000
   541. ERROR. CELL (1,25,14) THICKNESS <= 0. TOP, BOT:     612.383422850000
              975.000000000000
   542. ERROR. CELL (1,25,15) THICKNESS <= 0. TOP, BOT:     613.044006350000
              975.000000000000
   543. ERROR. CELL (1,25,16) THICKNESS <= 0. TOP, BOT:     619.210327150000
              975.000000000000
   544. ERROR. CELL (1,25,17) THICKNESS <= 0. TOP, BOT:     636.000000000000
              975.000000000000
   545. ERROR. CELL (1,25,18) THICKNESS <= 0. TOP, BOT:     645.079895020000
              975.000000000000
   546. ERROR. CELL (1,25,19) THICKNESS <= 0. TOP, BOT:     658.315917970000
              975.000000000000
   547. ERROR. CELL (1,25,20) THICKNESS <= 0. TOP, BOT:     666.000000000000
              975.000000000000
   548. ERROR. CELL (1,25,21) THICKNESS <= 0. TOP, BOT:     663.535583500000
              975.000000000000
   549. ERROR. CELL (1,25,22) THICKNESS <= 0. TOP, BOT:     648.421142580000
              975.000000000000
   550. ERROR. CELL (1,25,23) THICKNESS <= 0. TOP, BOT:     649.824707030000
              975.000000000000
   551. ERROR. CELL (1,25,24) THICKNESS <= 0. TOP, BOT:     658.000000000000
              975.000000000000
   552. ERROR. CELL (1,25,25) THICKNESS <= 0. TOP, BOT:     668.696960450000
              975.000000000000
   553. ERROR. CELL (1,25,26) THICKNESS <= 0. TOP, BOT:     691.289611820000
              975.000000000000
   554. ERROR. CELL (1,25,27) THICKNESS <= 0. TOP, BOT:     712.182495120000
              975.000000000000
   555. ERROR. CELL (1,25,28) THICKNESS <= 0. TOP, BOT:     725.117248540000
              975.000000000000
   556. ERROR. CELL (1,25,29) THICKNESS <= 0. TOP, BOT:     734.711059570000
              975.000000000000
   557. ERROR. CELL (1,25,30) THICKNESS <= 0. TOP, BOT:     742.000000000000
              975.000000000000
   558. ERROR. CELL (1,25,31) THICKNESS <= 0. TOP, BOT:     742.000000000000
              975.000000000000
   559. ERROR. CELL (1,25,32) THICKNESS <= 0. TOP, BOT:     738.469543460000
              975.000000000000
   560. ERROR. CELL (1,25,33) THICKNESS <= 0. TOP, BOT:     733.499023440000
              975.000000000000
   561. ERROR. CELL (1,25,34) THICKNESS <= 0. TOP, BOT:     722.640319820000
              975.000000000000
   562. ERROR. CELL (1,25,35) THICKNESS <= 0. TOP, BOT:     711.853454590000
              975.000000000000
   563. ERROR. CELL (1,25,36) THICKNESS <= 0. TOP, BOT:     706.338684080000
              975.000000000000
   564. ERROR. CELL (1,25,37) THICKNESS <= 0. TOP, BOT:     707.700988770000
              975.000000000000
   565. ERROR. CELL (1,25,38) THICKNESS <= 0. TOP, BOT:     710.000000000000
              975.000000000000
   566. ERROR. CELL (1,25,39) THICKNESS <= 0. TOP, BOT:     710.000000000000
              975.000000000000
   567. ERROR. CELL (1,25,40) THICKNESS <= 0. TOP, BOT:     710.345275880000
              975.000000000000
   568. ERROR. CELL (1,25,41) THICKNESS <= 0. TOP, BOT:     694.894836430000
              975.000000000000
   569. ERROR. CELL (1,25,42) THICKNESS <= 0. TOP, BOT:     680.000000000000
              975.000000000000
   570. ERROR. CELL (1,25,43) THICKNESS <= 0. TOP, BOT:     679.410949710000
              975.000000000000
   571. ERROR. CELL (1,25,44) THICKNESS <= 0. TOP, BOT:     683.069213870000
              975.000000000000
   572. ERROR. CELL (1,25,45) THICKNESS <= 0. TOP, BOT:     670.937316890000
              975.000000000000
   573. ERROR. CELL (1,25,46) THICKNESS <= 0. TOP, BOT:     661.792846680000
              975.000000000000
   574. ERROR. CELL (1,25,47) THICKNESS <= 0. TOP, BOT:     657.289611820000
              975.000000000000
   575. ERROR. CELL (1,25,48) THICKNESS <= 0. TOP, BOT:     647.981140140000
              975.000000000000
   576. ERROR. CELL (1,25,49) THICKNESS <= 0. TOP, BOT:     645.224487300000
              975.000000000000
   577. ERROR. CELL (1,25,50) THICKNESS <= 0. TOP, BOT:     649.059021000000
              975.000000000000
   578. ERROR. CELL (1,26,14) THICKNESS <= 0. TOP, BOT:     612.897277830000
              975.000000000000
   579. ERROR. CELL (1,26,15) THICKNESS <= 0. TOP, BOT:     613.712585450000
              975.000000000000
   580. ERROR. CELL (1,26,16) THICKNESS <= 0. TOP, BOT:     634.930114750000
              975.000000000000
   581. ERROR. CELL (1,26,17) THICKNESS <= 0. TOP, BOT:     634.598693850000
              975.000000000000
   582. ERROR. CELL (1,26,18) THICKNESS <= 0. TOP, BOT:     648.897460940000
              975.000000000000
   583. ERROR. CELL (1,26,19) THICKNESS <= 0. TOP, BOT:     653.864746090000
              975.000000000000
   584. ERROR. CELL (1,26,20) THICKNESS <= 0. TOP, BOT:     668.952819820000
              975.000000000000
   585. ERROR. CELL (1,26,21) THICKNESS <= 0. TOP, BOT:     665.896301270000
              975.000000000000
   586. ERROR. CELL (1,26,22) THICKNESS <= 0. TOP, BOT:     654.334106450000
              975.000000000000
   587. ERROR. CELL (1,26,23) THICKNESS <= 0. TOP, BOT:     652.065795900000
              975.000000000000
   588. ERROR. CELL (1,26,24) THICKNESS <= 0. TOP, BOT:     659.559509280000
              975.000000000000
   589. ERROR. CELL (1,26,25) THICKNESS <= 0. TOP, BOT:     669.929199220000
              975.000000000000
   590. ERROR. CELL (1,26,26) THICKNESS <= 0. TOP, BOT:     689.922058110000
              975.000000000000
   591. ERROR. CELL (1,26,27) THICKNESS <= 0. TOP, BOT:     712.196166990000
              975.000000000000
   592. ERROR. CELL (1,26,28) THICKNESS <= 0. TOP, BOT:     724.488098140000
              975.000000000000
   593. ERROR. CELL (1,26,29) THICKNESS <= 0. TOP, BOT:     733.420227050000
              975.000000000000
   594. ERROR. CELL (1,26,30) THICKNESS <= 0. TOP, BOT:     747.092468260000
              975.000000000000
   595. ERROR. CELL (1,26,31) THICKNESS <= 0. TOP, BOT:     744.774658200000
              975.000000000000
   596. ERROR. CELL (1,26,32) THICKNESS <= 0. TOP, BOT:     737.961914060000
              975.000000000000
   597. ERROR. CELL (1,26,33) THICKNESS <= 0. TOP, BOT:     731.419738770000
              975.000000000000
   598. ERROR. CELL (1,26,34) THICKNESS <= 0. TOP, BOT:     723.838378910000
              975.000000000000
   599. ERROR. CELL (1,26,35) THICKNESS <= 0. TOP, BOT:     718.000000000000
              975.000000000000
   600. ERROR. CELL (1,26,36) THICKNESS <= 0. TOP, BOT:     713.254333500000
              975.000000000000
   601. ERROR. CELL (1,26,37) THICKNESS <= 0. TOP, BOT:     710.000000000000
              975.000000000000
   602. ERROR. CELL (1,26,38) THICKNESS <= 0. TOP, BOT:     710.000000000000
              975.000000000000
   603. ERROR. CELL (1,26,39) THICKNESS <= 0. TOP, BOT:     710.000000000000
              975.000000000000
   604. ERROR. CELL (1,26,40) THICKNESS <= 0. TOP, BOT:     712.000000000000
              975.000000000000
   605. ERROR. CELL (1,26,41) THICKNESS <= 0. TOP, BOT:     712.000000000000
              975.000000000000
   606. ERROR. CELL (1,26,42) THICKNESS <= 0. TOP, BOT:     680.000000000000
              975.000000000000
   607. ERROR. CELL (1,26,43) THICKNESS <= 0. TOP, BOT:     696.433227540000
              975.000000000000
   608. ERROR. CELL (1,26,44) THICKNESS <= 0. TOP, BOT:     694.783203120000
              975.000000000000
   609. ERROR. CELL (1,26,45) THICKNESS <= 0. TOP, BOT:     674.024475100000
              975.000000000000
   610. ERROR. CELL (1,26,46) THICKNESS <= 0. TOP, BOT:     664.157714840000
              975.000000000000
   611. ERROR. CELL (1,26,47) THICKNESS <= 0. TOP, BOT:     660.122009280000
              975.000000000000
   612. ERROR. CELL (1,26,48) THICKNESS <= 0. TOP, BOT:     650.371215820000
              975.000000000000
   613. ERROR. CELL (1,26,49) THICKNESS <= 0. TOP, BOT:     647.268676760000
              975.000000000000
   614. ERROR. CELL (1,26,50) THICKNESS <= 0. TOP, BOT:     646.000000000000
              975.000000000000
   615. ERROR. CELL (1,26,51) THICKNESS <= 0. TOP, BOT:     646.215576170000
              975.000000000000
   616. ERROR. CELL (1,26,52) THICKNESS <= 0. TOP, BOT:     647.725341800000
              975.000000000000
   617. ERROR. CELL (1,26,53) THICKNESS <= 0. TOP, BOT:     648.000000000000
              975.000000000000
   618. ERROR. CELL (1,26,54) THICKNESS <= 0. TOP, BOT:     648.602783200000
              975.000000000000
   619. ERROR. CELL (1,26,55) THICKNESS <= 0. TOP, BOT:     649.272949220000
              975.000000000000
   620. ERROR. CELL (1,26,56) THICKNESS <= 0. TOP, BOT:     650.000000000000
              975.000000000000
   621. ERROR. CELL (1,26,57) THICKNESS <= 0. TOP, BOT:     650.998779300000
              975.000000000000
   622. ERROR. CELL (1,26,58) THICKNESS <= 0. TOP, BOT:     651.719177250000
              975.000000000000
   623. ERROR. CELL (1,26,59) THICKNESS <= 0. TOP, BOT:     651.076965330000
              975.000000000000
   624. ERROR. CELL (1,26,60) THICKNESS <= 0. TOP, BOT:     651.406616210000
              975.000000000000
   625. ERROR. CELL (1,26,61) THICKNESS <= 0. TOP, BOT:     651.576049800000
              975.000000000000
   626. ERROR. CELL (1,26,62) THICKNESS <= 0. TOP, BOT:     652.393615720000
              975.000000000000
   627. ERROR. CELL (1,26,63) THICKNESS <= 0. TOP, BOT:     654.651733400000
              975.000000000000
   628. ERROR. CELL (1,26,64) THICKNESS <= 0. TOP, BOT:     654.000000000000
              975.000000000000
   629. ERROR. CELL (1,26,65) THICKNESS <= 0. TOP, BOT:     654.486267090000
              975.000000000000
   630. ERROR. CELL (1,26,66) THICKNESS <= 0. TOP, BOT:     655.486145020000
              975.000000000000
   631. ERROR. CELL (1,26,67) THICKNESS <= 0. TOP, BOT:     655.136840820000
              975.000000000000
   632. ERROR. CELL (1,26,68) THICKNESS <= 0. TOP, BOT:     656.850341800000
              975.000000000000
   633. ERROR. CELL (1,26,69) THICKNESS <= 0. TOP, BOT:     657.443359380000
              975.000000000000
   634. ERROR. CELL (1,26,70) THICKNESS <= 0. TOP, BOT:     657.701232910000
              975.000000000000
   635. ERROR. CELL (1,26,71) THICKNESS <= 0. TOP, BOT:     659.447692870000
              975.000000000000
   636. ERROR. CELL (1,26,72) THICKNESS <= 0. TOP, BOT:     661.573913570000
              975.000000000000
   637. ERROR. CELL (1,26,73) THICKNESS <= 0. TOP, BOT:     659.938537600000
              975.000000000000
   638. ERROR. CELL (1,26,74) THICKNESS <= 0. TOP, BOT:     658.000000000000
              975.000000000000
   639. ERROR. CELL (1,26,75) THICKNESS <= 0. TOP, BOT:     658.000000000000
              975.000000000000
   640. ERROR. CELL (1,26,76) THICKNESS <= 0. TOP, BOT:     663.826171880000
              975.000000000000
   641. ERROR. CELL (1,27,13) THICKNESS <= 0. TOP, BOT:     613.264282230000
              975.000000000000
   642. ERROR. CELL (1,27,14) THICKNESS <= 0. TOP, BOT:     613.431945800000
              975.000000000000
   643. ERROR. CELL (1,27,15) THICKNESS <= 0. TOP, BOT:     615.626892090000
              975.000000000000
   644. ERROR. CELL (1,27,16) THICKNESS <= 0. TOP, BOT:     632.000000000000
              975.000000000000
   645. ERROR. CELL (1,27,17) THICKNESS <= 0. TOP, BOT:     644.217956540000
              975.000000000000
   646. ERROR. CELL (1,27,18) THICKNESS <= 0. TOP, BOT:     652.423767090000
              975.000000000000
   647. ERROR. CELL (1,27,19) THICKNESS <= 0. TOP, BOT:     658.000000000000
              975.000000000000
   648. ERROR. CELL (1,27,20) THICKNESS <= 0. TOP, BOT:     672.000000000000
              975.000000000000
   649. ERROR. CELL (1,27,21) THICKNESS <= 0. TOP, BOT:     668.908081050000
              975.000000000000
   650. ERROR. CELL (1,27,22) THICKNESS <= 0. TOP, BOT:     659.613098140000
              975.000000000000
   651. ERROR. CELL (1,27,23) THICKNESS <= 0. TOP, BOT:     652.287109380000
              975.000000000000
   652. ERROR. CELL (1,27,24) THICKNESS <= 0. TOP, BOT:     662.674804690000
              975.000000000000
   653. ERROR. CELL (1,27,25) THICKNESS <= 0. TOP, BOT:     670.731079100000
              975.000000000000
   654. ERROR. CELL (1,27,26) THICKNESS <= 0. TOP, BOT:     686.791015620000
              975.000000000000
   655. ERROR. CELL (1,27,27) THICKNESS <= 0. TOP, BOT:     709.057800290000
              975.000000000000
   656. ERROR. CELL (1,27,28) THICKNESS <= 0. TOP, BOT:     721.510498050000
              975.000000000000
   657. ERROR. CELL (1,27,29) THICKNESS <= 0. TOP, BOT:     730.908935550000
              975.000000000000
   658. ERROR. CELL (1,27,30) THICKNESS <= 0. TOP, BOT:     748.000000000000
              975.000000000000
   659. ERROR. CELL (1,27,31) THICKNESS <= 0. TOP, BOT:     746.242797850000
              975.000000000000
   660. ERROR. CELL (1,27,32) THICKNESS <= 0. TOP, BOT:     736.880798340000
              975.000000000000
   661. ERROR. CELL (1,27,33) THICKNESS <= 0. TOP, BOT:     732.863586430000
              975.000000000000
   662. ERROR. CELL (1,27,34) THICKNESS <= 0. TOP, BOT:     729.511962890000
              975.000000000000
   663. ERROR. CELL (1,27,35) THICKNESS <= 0. TOP, BOT:     725.957702640000
              975.000000000000
   664. ERROR. CELL (1,27,36) THICKNESS <= 0. TOP, BOT:     722.437438960000
              975.000000000000
   665. ERROR. CELL (1,27,37) THICKNESS <= 0. TOP, BOT:     716.533020020000
              975.000000000000
   666. ERROR. CELL (1,27,38) THICKNESS <= 0. TOP, BOT:     715.884460450000
              975.000000000000
   667. ERROR. CELL (1,27,39) THICKNESS <= 0. TOP, BOT:     713.385620120000
              975.000000000000
   668. ERROR. CELL (1,27,40) THICKNESS <= 0. TOP, BOT:     716.399597170000
              975.000000000000
   669. ERROR. CELL (1,27,41) THICKNESS <= 0. TOP, BOT:     717.672790530000
              975.000000000000
   670. ERROR. CELL (1,27,42) THICKNESS <= 0. TOP, BOT:     686.000000000000
              975.000000000000
   671. ERROR. CELL (1,27,43) THICKNESS <= 0. TOP, BOT:     707.907470700000
              975.000000000000
   672. ERROR. CELL (1,27,44) THICKNESS <= 0. TOP, BOT:     703.114318850000
              975.000000000000
   673. ERROR. CELL (1,27,45) THICKNESS <= 0. TOP, BOT:     685.049377440000
              975.000000000000
   674. ERROR. CELL (1,27,46) THICKNESS <= 0. TOP, BOT:     674.689147950000
              975.000000000000
   675. ERROR. CELL (1,27,47) THICKNESS <= 0. TOP, BOT:     660.771057130000
              975.000000000000
   676. ERROR. CELL (1,27,48) THICKNESS <= 0. TOP, BOT:     654.374572750000
              975.000000000000
   677. ERROR. CELL (1,27,49) THICKNESS <= 0. TOP, BOT:     652.000000000000
              975.000000000000
   678. ERROR. CELL (1,27,50) THICKNESS <= 0. TOP, BOT:     652.000000000000
              975.000000000000
   679. ERROR. CELL (1,27,51) THICKNESS <= 0. TOP, BOT:     652.189270020000
              975.000000000000
   680. ERROR. CELL (1,27,52) THICKNESS <= 0. TOP, BOT:     652.284790040000
              975.000000000000
   681. ERROR. CELL (1,27,53) THICKNESS <= 0. TOP, BOT:     651.835021970000
              975.000000000000
   682. ERROR. CELL (1,27,54) THICKNESS <= 0. TOP, BOT:     649.085693360000
              975.000000000000
   683. ERROR. CELL (1,27,55) THICKNESS <= 0. TOP, BOT:     649.306579590000
              975.000000000000
   684. ERROR. CELL (1,27,56) THICKNESS <= 0. TOP, BOT:     648.000000000000
              975.000000000000
   685. ERROR. CELL (1,27,57) THICKNESS <= 0. TOP, BOT:     648.000000000000
              975.000000000000
   686. ERROR. CELL (1,27,58) THICKNESS <= 0. TOP, BOT:     648.093078610000
              975.000000000000
   687. ERROR. CELL (1,27,59) THICKNESS <= 0. TOP, BOT:     649.531921390000
              975.000000000000
   688. ERROR. CELL (1,27,60) THICKNESS <= 0. TOP, BOT:     649.675598140000
              975.000000000000
   689. ERROR. CELL (1,27,61) THICKNESS <= 0. TOP, BOT:     650.000000000000
              975.000000000000
   690. ERROR. CELL (1,27,62) THICKNESS <= 0. TOP, BOT:     650.000000000000
              975.000000000000
   691. ERROR. CELL (1,27,63) THICKNESS <= 0. TOP, BOT:     650.868225100000
              975.000000000000
   692. ERROR. CELL (1,27,64) THICKNESS <= 0. TOP, BOT:     651.849304200000
              975.000000000000
   693. ERROR. CELL (1,27,65) THICKNESS <= 0. TOP, BOT:     652.000000000000
              975.000000000000
   694. ERROR. CELL (1,27,66) THICKNESS <= 0. TOP, BOT:     652.000000000000
              975.000000000000
   695. ERROR. CELL (1,27,67) THICKNESS <= 0. TOP, BOT:     652.000000000000
              975.000000000000
   696. ERROR. CELL (1,27,68) THICKNESS <= 0. TOP, BOT:     652.000000000000
              975.000000000000
   697. ERROR. CELL (1,27,69) THICKNESS <= 0. TOP, BOT:     652.000000000000
              975.000000000000
   698. ERROR. CELL (1,27,70) THICKNESS <= 0. TOP, BOT:     652.000000000000
              975.000000000000
   699. ERROR. CELL (1,27,71) THICKNESS <= 0. TOP, BOT:     652.000000000000
              975.000000000000
   700. ERROR. CELL (1,27,72) THICKNESS <= 0. TOP, BOT:     653.903076170000
              975.000000000000
   701. ERROR. CELL (1,27,73) THICKNESS <= 0. TOP, BOT:     654.000000000000
              975.000000000000
   702. ERROR. CELL (1,27,74) THICKNESS <= 0. TOP, BOT:     655.430175780000
              975.000000000000
   703. ERROR. CELL (1,27,75) THICKNESS <= 0. TOP, BOT:     656.683166500000
              975.000000000000
   704. ERROR. CELL (1,27,76) THICKNESS <= 0. TOP, BOT:     658.858398440000
              975.000000000000
   705. ERROR. CELL (1,27,77) THICKNESS <= 0. TOP, BOT:     659.628845210000
              975.000000000000
   706. ERROR. CELL (1,27,78) THICKNESS <= 0. TOP, BOT:     660.476501460000
              975.000000000000
   707. ERROR. CELL (1,27,79) THICKNESS <= 0. TOP, BOT:     660.830627440000
              975.000000000000
   708. ERROR. CELL (1,27,80) THICKNESS <= 0. TOP, BOT:     663.288757320000
              975.000000000000
   709. ERROR. CELL (1,28,12) THICKNESS <= 0. TOP, BOT:     613.631347660000
              975.000000000000
   710. ERROR. CELL (1,28,13) THICKNESS <= 0. TOP, BOT:     613.798950200000
              975.000000000000
   711. ERROR. CELL (1,28,14) THICKNESS <= 0. TOP, BOT:     613.966552730000
              975.000000000000
   712. ERROR. CELL (1,28,15) THICKNESS <= 0. TOP, BOT:     631.645446780000
              975.000000000000
   713. ERROR. CELL (1,28,16) THICKNESS <= 0. TOP, BOT:     645.509521480000
              975.000000000000
   714. ERROR. CELL (1,28,17) THICKNESS <= 0. TOP, BOT:     652.000000000000
              975.000000000000
   715. ERROR. CELL (1,28,18) THICKNESS <= 0. TOP, BOT:     660.223937990000
[...]
              975.000000000000
   819. ERROR. CELL (1,29,47) THICKNESS <= 0. TOP, BOT:     678.224548340000
              975.000000000000
   820. ERROR. CELL (1,29,48) THICKNESS <= 0. TOP, BOT:     667.714477540000
              975.000000000000
   821. ERROR. CELL (1,29,49) THICKNESS <= 0. TOP, BOT:     660.033874510000
              975.000000000000
   822. ERROR. CELL (1,29,50) THICKNESS <= 0. TOP, BOT:     672.880920410000
              975.000000000000
   823. ERROR. CELL (1,29,51) THICKNESS <= 0. TOP, BOT:     677.377014160000
              975.000000000000
   824. ERROR. CELL (1,29,52) THICKNESS <= 0. TOP, BOT:     676.691345210000
              975.000000000000
   825. ERROR. CELL (1,29,53) THICKNESS <= 0. TOP, BOT:     675.986572270000
              975.000000000000
   826. ERROR. CELL (1,29,54) THICKNESS <= 0. TOP, BOT:     676.522216800000
              975.000000000000
   827. ERROR. CELL (1,29,55) THICKNESS <= 0. TOP, BOT:     675.636230470000
              975.000000000000
   828. ERROR. CELL (1,29,56) THICKNESS <= 0. TOP, BOT:     677.165283200000
              975.000000000000
   829. ERROR. CELL (1,29,57) THICKNESS <= 0. TOP, BOT:     679.673950200000
              975.000000000000
   830. ERROR. CELL (1,29,58) THICKNESS <= 0. TOP, BOT:     680.000000000000
              975.000000000000
   831. ERROR. CELL (1,29,59) THICKNESS <= 0. TOP, BOT:     681.626037600000
              975.000000000000
   832. ERROR. CELL (1,29,60) THICKNESS <= 0. TOP, BOT:     681.345947270000
              975.000000000000
   833. ERROR. CELL (1,29,61) THICKNESS <= 0. TOP, BOT:     680.436096190000
              975.000000000000
   834. ERROR. CELL (1,29,62) THICKNESS <= 0. TOP, BOT:     686.987854000000
              975.000000000000
   835. ERROR. CELL (1,29,63) THICKNESS <= 0. TOP, BOT:     700.330871580000
              975.000000000000
   836. ERROR. CELL (1,29,64) THICKNESS <= 0. TOP, BOT:     709.342224120000
              975.000000000000
   837. ERROR. CELL (1,29,65) THICKNESS <= 0. TOP, BOT:     709.042419430000
              975.000000000000
   838. ERROR. CELL (1,29,66) THICKNESS <= 0. TOP, BOT:     706.204040530000
              975.000000000000
   839. ERROR. CELL (1,29,67) THICKNESS <= 0. TOP, BOT:     705.512817380000
              975.000000000000
   840. ERROR. CELL (1,29,68) THICKNESS <= 0. TOP, BOT:     710.000000000000
              975.000000000000
   841. ERROR. CELL (1,29,69) THICKNESS <= 0. TOP, BOT:     707.086181640000
              975.000000000000
   842. ERROR. CELL (1,29,70) THICKNESS <= 0. TOP, BOT:     701.449890140000
              975.000000000000
   843. ERROR. CELL (1,29,71) THICKNESS <= 0. TOP, BOT:     700.478759770000
              975.000000000000
   844. ERROR. CELL (1,29,72) THICKNESS <= 0. TOP, BOT:     703.213012700000
              975.000000000000
   845. ERROR. CELL (1,29,73) THICKNESS <= 0. TOP, BOT:     703.769409180000
              975.000000000000
   846. ERROR. CELL (1,29,74) THICKNESS <= 0. TOP, BOT:     696.692260740000
              975.000000000000
   847. ERROR. CELL (1,29,75) THICKNESS <= 0. TOP, BOT:     691.715209960000
              975.000000000000
   848. ERROR. CELL (1,29,76) THICKNESS <= 0. TOP, BOT:     674.197998050000
              975.000000000000
   849. ERROR. CELL (1,29,77) THICKNESS <= 0. TOP, BOT:     663.914672850000
              975.000000000000
   850. ERROR. CELL (1,29,78) THICKNESS <= 0. TOP, BOT:     658.501220700000
              975.000000000000
   851. ERROR. CELL (1,29,79) THICKNESS <= 0. TOP, BOT:     654.000000000000
              975.000000000000
   852. ERROR. CELL (1,29,80) THICKNESS <= 0. TOP, BOT:     655.333984380000
              975.000000000000
   853. ERROR. CELL (1,29,81) THICKNESS <= 0. TOP, BOT:     658.993469240000
              975.000000000000
   854. ERROR. CELL (1,29,82) THICKNESS <= 0. TOP, BOT:     663.567687990000
              975.000000000000
   855. ERROR. CELL (1,29,83) THICKNESS <= 0. TOP, BOT:     664.113708500000
              975.000000000000
   856. ERROR. CELL (1,29,84) THICKNESS <= 0. TOP, BOT:     662.484863280000
              975.000000000000
   857. ERROR. CELL (1,29,85) THICKNESS <= 0. TOP, BOT:     684.000000000000
              975.000000000000
   858. ERROR. CELL (1,30,9) THICKNESS <= 0. TOP, BOT:     614.365905760000
             975.000000000000
   859. ERROR. CELL (1,30,10) THICKNESS <= 0. TOP, BOT:     614.000000000000
              975.000000000000
   860. ERROR. CELL (1,30,11) THICKNESS <= 0. TOP, BOT:     614.000000000000
              975.000000000000
   861. ERROR. CELL (1,30,12) THICKNESS <= 0. TOP, BOT:     614.000000000000
              975.000000000000
   862. ERROR. CELL (1,30,13) THICKNESS <= 0. TOP, BOT:     623.930786130000
              975.000000000000
   863. ERROR. CELL (1,30,14) THICKNESS <= 0. TOP, BOT:     638.542907710000
              975.000000000000
   864. ERROR. CELL (1,30,15) THICKNESS <= 0. TOP, BOT:     649.496765140000
              975.000000000000
   865. ERROR. CELL (1,30,16) THICKNESS <= 0. TOP, BOT:     655.480896000000
              975.000000000000
   866. ERROR. CELL (1,30,17) THICKNESS <= 0. TOP, BOT:     666.229248050000
              975.000000000000
   867. ERROR. CELL (1,30,18) THICKNESS <= 0. TOP, BOT:     671.269653320000
              975.000000000000
   868. ERROR. CELL (1,30,19) THICKNESS <= 0. TOP, BOT:     682.864135740000
              975.000000000000
   869. ERROR. CELL (1,30,20) THICKNESS <= 0. TOP, BOT:     696.000000000000
              975.000000000000
   870. ERROR. CELL (1,30,21) THICKNESS <= 0. TOP, BOT:     683.851684570000
              975.000000000000
   871. ERROR. CELL (1,30,22) THICKNESS <= 0. TOP, BOT:     675.546020510000
              975.000000000000
   872. ERROR. CELL (1,30,23) THICKNESS <= 0. TOP, BOT:     676.780273440000
              975.000000000000
   873. ERROR. CELL (1,30,24) THICKNESS <= 0. TOP, BOT:     679.561279300000
              975.000000000000
   874. ERROR. CELL (1,30,25) THICKNESS <= 0. TOP, BOT:     666.693481450000
              975.000000000000
   875. ERROR. CELL (1,30,26) THICKNESS <= 0. TOP, BOT:     682.711975100000
              975.000000000000
   876. ERROR. CELL (1,30,27) THICKNESS <= 0. TOP, BOT:     691.522460940000
              975.000000000000
   877. ERROR. CELL (1,30,28) THICKNESS <= 0. TOP, BOT:     700.000000000000
              975.000000000000
   878. ERROR. CELL (1,30,29) THICKNESS <= 0. TOP, BOT:     716.139709470000
              975.000000000000
   879. ERROR. CELL (1,30,30) THICKNESS <= 0. TOP, BOT:     735.512146000000
              975.000000000000
   880. ERROR. CELL (1,30,31) THICKNESS <= 0. TOP, BOT:     742.000000000000
              975.000000000000
   881. ERROR. CELL (1,30,32) THICKNESS <= 0. TOP, BOT:     742.647644040000
              975.000000000000
   882. ERROR. CELL (1,30,33) THICKNESS <= 0. TOP, BOT:     744.121826170000
              975.000000000000
   883. ERROR. CELL (1,30,34) THICKNESS <= 0. TOP, BOT:     742.417663570000
              975.000000000000
   884. ERROR. CELL (1,30,35) THICKNESS <= 0. TOP, BOT:     742.000000000000
              975.000000000000
   885. ERROR. CELL (1,30,36) THICKNESS <= 0. TOP, BOT:     739.248229980000
              975.000000000000
   886. ERROR. CELL (1,30,37) THICKNESS <= 0. TOP, BOT:     734.675842290000
              975.000000000000
   887. ERROR. CELL (1,30,38) THICKNESS <= 0. TOP, BOT:     732.888122560000
              975.000000000000
   888. ERROR. CELL (1,30,39) THICKNESS <= 0. TOP, BOT:     732.000000000000
              975.000000000000
   889. ERROR. CELL (1,30,40) THICKNESS <= 0. TOP, BOT:     730.589111330000
              975.000000000000
   890. ERROR. CELL (1,30,41) THICKNESS <= 0. TOP, BOT:     715.596435550000
              975.000000000000
   891. ERROR. CELL (1,30,42) THICKNESS <= 0. TOP, BOT:     712.000000000000
              975.000000000000
   892. ERROR. CELL (1,30,43) THICKNESS <= 0. TOP, BOT:     710.000000000000
              975.000000000000
   893. ERROR. CELL (1,30,44) THICKNESS <= 0. TOP, BOT:     698.583007810000
              975.000000000000
   894. ERROR. CELL (1,30,45) THICKNESS <= 0. TOP, BOT:     688.958190920000
              975.000000000000
   895. ERROR. CELL (1,30,46) THICKNESS <= 0. TOP, BOT:     685.833251950000
              975.000000000000
   896. ERROR. CELL (1,30,47) THICKNESS <= 0. TOP, BOT:     686.278137210000
              975.000000000000
   897. ERROR. CELL (1,30,48) THICKNESS <= 0. TOP, BOT:     683.093200680000
              975.000000000000
   898. ERROR. CELL (1,30,49) THICKNESS <= 0. TOP, BOT:     674.873535160000
              975.000000000000
   899. ERROR. CELL (1,30,50) THICKNESS <= 0. TOP, BOT:     668.721923830000
              975.000000000000
   900. ERROR. CELL (1,30,51) THICKNESS <= 0. TOP, BOT:     678.341491700000
              975.000000000000
   901. ERROR. CELL (1,30,52) THICKNESS <= 0. TOP, BOT:     683.308532710000
              975.000000000000
   902. ERROR. CELL (1,30,53) THICKNESS <= 0. TOP, BOT:     684.453430180000
              975.000000000000
   903. ERROR. CELL (1,30,54) THICKNESS <= 0. TOP, BOT:     686.496215820000
              975.000000000000
   904. ERROR. CELL (1,30,55) THICKNESS <= 0. TOP, BOT:     688.626953120000
              975.000000000000
   905. ERROR. CELL (1,30,56) THICKNESS <= 0. TOP, BOT:     688.292663570000
              975.000000000000
   906. ERROR. CELL (1,30,57) THICKNESS <= 0. TOP, BOT:     688.652038570000
              975.000000000000
   907. ERROR. CELL (1,30,58) THICKNESS <= 0. TOP, BOT:     701.355346680000
              975.000000000000
   908. ERROR. CELL (1,30,59) THICKNESS <= 0. TOP, BOT:     703.568115230000
              975.000000000000
   909. ERROR. CELL (1,30,60) THICKNESS <= 0. TOP, BOT:     705.982727050000
              975.000000000000
   910. ERROR. CELL (1,30,61) THICKNESS <= 0. TOP, BOT:     717.592590330000
              975.000000000000
   911. ERROR. CELL (1,30,62) THICKNESS <= 0. TOP, BOT:     724.193115230000
              975.000000000000
   912. ERROR. CELL (1,30,63) THICKNESS <= 0. TOP, BOT:     726.622680660000
              975.000000000000
   913. ERROR. CELL (1,30,64) THICKNESS <= 0. TOP, BOT:     727.786865230000
              975.000000000000
   914. ERROR. CELL (1,30,65) THICKNESS <= 0. TOP, BOT:     727.746154790000
              975.000000000000
   915. ERROR. CELL (1,30,66) THICKNESS <= 0. TOP, BOT:     720.126953120000
              975.000000000000
   916. ERROR. CELL (1,30,67) THICKNESS <= 0. TOP, BOT:     717.476562500000
              975.000000000000
   917. ERROR. CELL (1,30,68) THICKNESS <= 0. TOP, BOT:     715.781311040000
              975.000000000000
   918. ERROR. CELL (1,30,69) THICKNESS <= 0. TOP, BOT:     715.134704590000
              975.000000000000
   919. ERROR. CELL (1,30,70) THICKNESS <= 0. TOP, BOT:     714.882629390000
              975.000000000000
   920. ERROR. CELL (1,30,71) THICKNESS <= 0. TOP, BOT:     715.452758790000
              975.000000000000
   921. ERROR. CELL (1,30,72) THICKNESS <= 0. TOP, BOT:     721.291442870000
              975.000000000000
   922. ERROR. CELL (1,30,73) THICKNESS <= 0. TOP, BOT:     722.654296880000
              975.000000000000
   923. ERROR. CELL (1,30,74) THICKNESS <= 0. TOP, BOT:     720.615112300000
              975.000000000000
   924. ERROR. CELL (1,30,75) THICKNESS <= 0. TOP, BOT:     718.000000000000
              975.000000000000
   925. ERROR. CELL (1,30,76) THICKNESS <= 0. TOP, BOT:     716.462829590000
              975.000000000000
   926. ERROR. CELL (1,30,77) THICKNESS <= 0. TOP, BOT:     717.325744630000
              975.000000000000
   927. ERROR. CELL (1,30,78) THICKNESS <= 0. TOP, BOT:     721.518493650000
              975.000000000000
   928. ERROR. CELL (1,30,79) THICKNESS <= 0. TOP, BOT:     719.813598630000
              975.000000000000
   929. ERROR. CELL (1,30,80) THICKNESS <= 0. TOP, BOT:     697.557128910000
              975.000000000000
   930. ERROR. CELL (1,30,81) THICKNESS <= 0. TOP, BOT:     693.093444820000
              975.000000000000
   931. ERROR. CELL (1,30,82) THICKNESS <= 0. TOP, BOT:     678.333862300000
              975.000000000000
   932. ERROR. CELL (1,30,83) THICKNESS <= 0. TOP, BOT:     668.000000000000
              975.000000000000
   933. ERROR. CELL (1,30,84) THICKNESS <= 0. TOP, BOT:     660.000000000000
              975.000000000000
   934. ERROR. CELL (1,30,85) THICKNESS <= 0. TOP, BOT:     667.142089840000
              975.000000000000
   935. ERROR. CELL (1,31,7) THICKNESS <= 0. TOP, BOT:     629.000000000000
             975.000000000000
   936. ERROR. CELL (1,31,8) THICKNESS <= 0. TOP, BOT:     614.951538090000
             975.000000000000
   937. ERROR. CELL (1,31,9) THICKNESS <= 0. TOP, BOT:     615.810913090000
             975.000000000000
   938. ERROR. CELL (1,31,10) THICKNESS <= 0. TOP, BOT:     615.646057130000
              975.000000000000
   939. ERROR. CELL (1,31,11) THICKNESS <= 0. TOP, BOT:     616.000000000000
              975.000000000000
   940. ERROR. CELL (1,31,12) THICKNESS <= 0. TOP, BOT:     625.253723140000
              975.000000000000
   941. ERROR. CELL (1,31,13) THICKNESS <= 0. TOP, BOT:     636.000000000000
              975.000000000000
   942. ERROR. CELL (1,31,14) THICKNESS <= 0. TOP, BOT:     648.672790530000
              975.000000000000
   943. ERROR. CELL (1,31,15) THICKNESS <= 0. TOP, BOT:     655.598449710000
              975.000000000000
   944. ERROR. CELL (1,31,16) THICKNESS <= 0. TOP, BOT:     665.824340820000
              975.000000000000
   945. ERROR. CELL (1,31,17) THICKNESS <= 0. TOP, BOT:     670.000000000000
              975.000000000000
   946. ERROR. CELL (1,31,18) THICKNESS <= 0. TOP, BOT:     675.777954100000
              975.000000000000
   947. ERROR. CELL (1,31,19) THICKNESS <= 0. TOP, BOT:     689.653076170000
              975.000000000000
   948. ERROR. CELL (1,31,20) THICKNESS <= 0. TOP, BOT:     696.363037110000
              975.000000000000
   949. ERROR. CELL (1,31,21) THICKNESS <= 0. TOP, BOT:     686.265380860000
              975.000000000000
   950. ERROR. CELL (1,31,22) THICKNESS <= 0. TOP, BOT:     680.000000000000
              975.000000000000
   951. ERROR. CELL (1,31,23) THICKNESS <= 0. TOP, BOT:     688.033569340000
              975.000000000000
   952. ERROR. CELL (1,31,24) THICKNESS <= 0. TOP, BOT:     684.250732420000
              975.000000000000
   953. ERROR. CELL (1,31,25) THICKNESS <= 0. TOP, BOT:     677.663879390000
              975.000000000000
   954. ERROR. CELL (1,31,26) THICKNESS <= 0. TOP, BOT:     685.362854000000
              975.000000000000
   955. ERROR. CELL (1,31,27) THICKNESS <= 0. TOP, BOT:     693.751037600000
              975.000000000000
   956. ERROR. CELL (1,31,28) THICKNESS <= 0. TOP, BOT:     711.734985350000
              975.000000000000
   957. ERROR. CELL (1,31,29) THICKNESS <= 0. TOP, BOT:     734.888854980000
              975.000000000000
   958. ERROR. CELL (1,31,30) THICKNESS <= 0. TOP, BOT:     742.063903810000
              975.000000000000
   959. ERROR. CELL (1,31,31) THICKNESS <= 0. TOP, BOT:     742.000000000000
              975.000000000000
   960. ERROR. CELL (1,31,32) THICKNESS <= 0. TOP, BOT:     746.068298340000
              975.000000000000
   961. ERROR. CELL (1,31,33) THICKNESS <= 0. TOP, BOT:     745.849060060000
              975.000000000000
   962. ERROR. CELL (1,31,34) THICKNESS <= 0. TOP, BOT:     744.346008300000
              975.000000000000
   963. ERROR. CELL (1,31,35) THICKNESS <= 0. TOP, BOT:     742.000000000000
              975.000000000000
   964. ERROR. CELL (1,31,36) THICKNESS <= 0. TOP, BOT:     738.786621090000
              975.000000000000
   965. ERROR. CELL (1,31,37) THICKNESS <= 0. TOP, BOT:     735.275512700000
              975.000000000000
   966. ERROR. CELL (1,31,38) THICKNESS <= 0. TOP, BOT:     734.462341310000
              975.000000000000
   967. ERROR. CELL (1,31,39) THICKNESS <= 0. TOP, BOT:     734.328125000000
              975.000000000000
   968. ERROR. CELL (1,31,40) THICKNESS <= 0. TOP, BOT:     721.505615230000
              975.000000000000
   969. ERROR. CELL (1,31,41) THICKNESS <= 0. TOP, BOT:     714.357971190000
              975.000000000000
   970. ERROR. CELL (1,31,42) THICKNESS <= 0. TOP, BOT:     717.233093260000
              975.000000000000
   971. ERROR. CELL (1,31,43) THICKNESS <= 0. TOP, BOT:     713.198608400000
              975.000000000000
   972. ERROR. CELL (1,31,44) THICKNESS <= 0. TOP, BOT:     707.155700680000
              975.000000000000
   973. ERROR. CELL (1,31,45) THICKNESS <= 0. TOP, BOT:     706.086608890000
              975.000000000000
   974. ERROR. CELL (1,31,46) THICKNESS <= 0. TOP, BOT:     693.418701170000
              975.000000000000
   975. ERROR. CELL (1,31,47) THICKNESS <= 0. TOP, BOT:     690.000000000000
              975.000000000000
   976. ERROR. CELL (1,31,48) THICKNESS <= 0. TOP, BOT:     688.877990720000
              975.000000000000
   977. ERROR. CELL (1,31,49) THICKNESS <= 0. TOP, BOT:     685.072753910000
              975.000000000000
   978. ERROR. CELL (1,31,50) THICKNESS <= 0. TOP, BOT:     676.349121090000
              975.000000000000
   979. ERROR. CELL (1,31,51) THICKNESS <= 0. TOP, BOT:     677.489746090000
              975.000000000000
   980. ERROR. CELL (1,31,52) THICKNESS <= 0. TOP, BOT:     682.622314450000
              975.000000000000
   981. ERROR. CELL (1,31,53) THICKNESS <= 0. TOP, BOT:     684.358154300000
              975.000000000000
   982. ERROR. CELL (1,31,54) THICKNESS <= 0. TOP, BOT:     691.112792970000
              975.000000000000
   983. ERROR. CELL (1,31,55) THICKNESS <= 0. TOP, BOT:     693.254699710000
              975.000000000000
   984. ERROR. CELL (1,31,56) THICKNESS <= 0. TOP, BOT:     694.723571780000
              975.000000000000
   985. ERROR. CELL (1,31,57) THICKNESS <= 0. TOP, BOT:     696.000000000000
              975.000000000000
   986. ERROR. CELL (1,31,58) THICKNESS <= 0. TOP, BOT:     697.917480470000
              975.000000000000
   987. ERROR. CELL (1,31,59) THICKNESS <= 0. TOP, BOT:     701.593750000000
              975.000000000000
   988. ERROR. CELL (1,31,60) THICKNESS <= 0. TOP, BOT:     703.854003910000
              975.000000000000
   989. ERROR. CELL (1,31,61) THICKNESS <= 0. TOP, BOT:     718.023559570000
              975.000000000000
   990. ERROR. CELL (1,31,62) THICKNESS <= 0. TOP, BOT:     724.223144530000
              975.000000000000
   991. ERROR. CELL (1,31,63) THICKNESS <= 0. TOP, BOT:     731.643615720000
              975.000000000000
   992. ERROR. CELL (1,31,64) THICKNESS <= 0. TOP, BOT:     733.282165530000
              975.000000000000
   993. ERROR. CELL (1,31,65) THICKNESS <= 0. TOP, BOT:     729.889770510000
              975.000000000000
   994. ERROR. CELL (1,31,66) THICKNESS <= 0. TOP, BOT:     725.866943360000
              975.000000000000
   995. ERROR. CELL (1,31,67) THICKNESS <= 0. TOP, BOT:     724.278808590000
              975.000000000000
   996. ERROR. CELL (1,31,68) THICKNESS <= 0. TOP, BOT:     722.393493650000
              975.000000000000
   997. ERROR. CELL (1,31,69) THICKNESS <= 0. TOP, BOT:     721.299255370000
              975.000000000000
   998. ERROR. CELL (1,31,70) THICKNESS <= 0. TOP, BOT:     720.898437500000
              975.000000000000
   999. ERROR. CELL (1,31,71) THICKNESS <= 0. TOP, BOT:     723.563598630000
              975.000000000000
  1000. ERROR. CELL (1,31,72) THICKNESS <= 0. TOP, BOT:     725.000793460000
              975.000000000000

 1933 additional error(s) detected but not printed.

UNIT ERROR REPORT:

  1. ERROR OCCURRED WHILE READING FILE 'D:\OneDrive - UNIVERSIDAD INDUSTRIAL
     DE
     SANTANDER\Maestria\06_Tesis\01_Tesis_Dev\09_Python\Main_Mod\data\modelo_N
     orte\modelo_Norte.dis'

