                                   MODFLOW 6
                U.S. GEOLOGICAL SURVEY MODULAR HYDROLOGIC MODEL
                          GROUNDWATER FLOW MODEL (GWF)
                            VERSION 6.2.0 10/22/2020

   MODFLOW 6 compiled Oct 22 2020 09:26:42 with IFORT compiler (ver. 19.10.2)

This software has been approved for release by the U.S. Geological 
Survey (USGS). Although the software has been subjected to rigorous 
review, the USGS reserves the right to update the software as needed 
pursuant to further analysis and review. No warranty, expressed or 
implied, is made by the USGS or the U.S. Government as to the 
functionality of the software and related material nor shall the 
fact of release constitute any such warranty. Furthermore, the 
software is released on condition that neither the USGS nor the U.S. 
Government shall be held liable for any damages resulting from its 
authorized or unauthorized use. Also refer to the USGS Water 
Resources Software User Rights Notice for complete use, copyright, 
and distribution information.


System command used to initiate simulation:
C:\WRDAPP\mf6.2.0\bin\mf6

MODFLOW was compiled using uniform precision.

Real Variables
  KIND: 8
  TINY (smallest non-zero value):    2.225074-308
  HUGE (largest value):    1.797693+308
  PRECISION: 15
  BIT SIZE: 64

Integer Variables
  KIND: 4
  HUGE (largest value): 2147483647
  BIT SIZE: 32

Long Integer Variables
  KIND: 8
  HUGE (largest value): 9223372036854775807
  BIT SIZE: 64

Logical Variables
  KIND: 4
  BIT SIZE: 32
 

 OPENED modelo_Norte.dis
 FILE TYPE:DIS6                   UNIT 1005   STATUS:OLD                 
 FORMAT:FORMATTED              ACCESS:SEQUENTIAL          
 ACTION:READ                


 OPENED modelo_Norte.rch
 FILE TYPE:RCH6                   UNIT 1006   STATUS:OLD                 
 FORMAT:FORMATTED              ACCESS:SEQUENTIAL          
 ACTION:READ                


 OPENED modelo_Norte.ic
 FILE TYPE:IC6                    UNIT 1007   STATUS:OLD                 
 FORMAT:FORMATTED              ACCESS:SEQUENTIAL          
 ACTION:READ                


 OPENED modelo_Norte.npf
 FILE TYPE:NPF6                   UNIT 1008   STATUS:OLD                 
 FORMAT:FORMATTED              ACCESS:SEQUENTIAL          
 ACTION:READ                


 OPENED modelo_Norte.oc
 FILE TYPE:OC6                    UNIT 1009   STATUS:OLD                 
 FORMAT:FORMATTED              ACCESS:SEQUENTIAL          
 ACTION:READ                


 DIS -- STRUCTURED GRID DISCRETIZATION PACKAGE, VERSION 2 : 3/27/2014 - INPUT READ FROM UNIT 1005


 # File generated by Flopy version 3.3.2 on 02/16/2021 at 14:18:42.
 PROCESSING DISCRETIZATION OPTIONS
    XORIGIN SPECIFIED AS     1102385.12000000    
    YORIGIN SPECIFIED AS     1281362.22000000    
 END OF DISCRETIZATION OPTIONS
 MODEL LENGTH UNIT IS UNDEFINED
 PROCESSING DISCRETIZATION DIMENSIONS
    NLAY =      20
    NROW =      61
    NCOL =      75
 END OF DISCRETIZATION DIMENSIONS
 PROCESSING GRIDDATA
 END PROCESSING GRIDDATA

 THE SPECIFIED IDOMAIN RESULTS IN A REDUCED NUMBER OF CELLS.
 NUMBER OF USER NODES: 91500
 NUMBER OF NODES IN SOLUTION: 51140



 NPF -- NODE PROPERTY FLOW PACKAGE, VERSION 1, 3/30/2015 INPUT READ FROM UNIT 1008


 # File generated by Flopy version 3.3.2 on 02/16/2021 at 14:18:42.
 PROCESSING NPF OPTIONS
    CELL-BY-CELL FLOW INFORMATION WILL BE SAVED TO BINARY FILE WHENEVER ICBCFL IS NOT ZERO.
 END OF NPF OPTIONS

 RCH   -- RCH PACKAGE, VERSION 8, 2/22/2014 INPUT READ FROM UNIT 1006
 # File generated by Flopy version 3.3.2 on 02/16/2021 at 14:18:42.

 PROCESSING RCH OPTIONS
    LISTS OF RCH CELLS WILL BE PRINTED.
    RCH FLOWS WILL BE PRINTED TO LISTING FILE.
    FLOWS WILL BE SAVED TO BUDGET FILE SPECIFIED IN OUTPUT CONTROL
 END OF RCH OPTIONS

 PROCESSING RCH DIMENSIONS
    MAXBOUND =    2055
 END OF RCH DIMENSIONS

 IC -- INITIAL CONDITIONS PACKAGE, VERSION 8, 3/28/2015 INPUT READ FROM UNIT 1007
 # File generated by Flopy version 3.3.2 on 02/16/2021 at 14:18:42.
 PROCESSING GRIDDATA
 END PROCESSING GRIDDATA
 PROCESSING GRIDDATA

                ICELLTYPE = 1

                        K =  0.1000000E-05
 K33 not provided.  Assuming K33 = K.
 K22 not provided.  Assuming K22 = K.
 END PROCESSING GRIDDATA

 CELL CONVERSIONS FOR ITER.=0  STEP=0  PERIOD=0   (NODE or LRC)
     DRY           (1,36,24) DRY           (1,37,22) DRY           (1,37,23) DRY           (1,37,24) DRY           (1,37,25)
     DRY           (1,38,21) DRY           (1,38,22) DRY           (1,38,23) DRY           (1,38,24) DRY           (1,38,25)
     DRY           (1,38,29) DRY           (1,39,20) DRY           (1,39,21) DRY           (1,39,22) DRY           (1,39,23)
     DRY           (1,39,24) DRY           (1,39,25) DRY           (1,39,26) DRY           (1,39,28) DRY           (1,40,19)
     DRY           (1,40,20) DRY           (1,40,21) DRY           (1,40,22) DRY           (1,40,23) DRY           (1,40,24)
     DRY           (1,40,25) DRY           (1,40,26) DRY           (1,40,27) DRY           (1,40,28) DRY           (1,41,16)
     DRY           (1,41,17) DRY           (1,41,18) DRY           (1,41,19) DRY           (1,41,20) DRY           (1,41,21)
     DRY           (1,41,22) DRY           (1,41,23) DRY           (1,41,24) DRY           (1,41,25) DRY           (1,41,26)
     DRY           (1,41,27) DRY           (1,41,28) DRY           (1,42,16) DRY           (1,42,17) DRY           (1,42,18)
     DRY           (1,42,19) DRY           (1,42,20) DRY           (1,42,21) DRY           (1,42,22) DRY           (1,42,23)
     DRY           (1,42,25) DRY           (1,42,26) DRY           (1,42,27) DRY           (1,42,28) DRY           (1,42,29)
     DRY           (1,43,15) DRY           (1,43,23) DRY           (1,43,24) DRY           (1,43,25) DRY           (1,43,26)
     DRY           (1,43,27) DRY           (1,43,28) DRY           (1,43,29) DRY           (1,43,30) DRY           (1,43,31)
     DRY           (1,44,21) DRY           (1,44,22) DRY           (1,44,23) DRY           (1,44,24) DRY           (1,44,25)
     DRY           (1,44,26) DRY           (1,44,27) DRY           (1,44,28) DRY           (1,44,29) DRY           (1,44,30)
     DRY           (1,44,31) DRY           (1,44,32) DRY           (1,45,20) DRY           (1,45,21) DRY           (1,45,22)
     DRY           (1,45,23) DRY           (1,45,24) DRY           (1,45,25) DRY           (1,45,26) DRY           (1,45,27)
     DRY           (1,45,28) DRY           (1,45,29) DRY           (1,45,30) DRY           (1,45,31) DRY           (1,45,32)
     DRY           (1,46,20) DRY           (1,46,21) DRY           (1,46,22) DRY           (1,46,23) DRY           (1,46,24)
     DRY           (1,46,25) DRY           (1,46,26) DRY           (1,46,27) DRY           (1,46,28) DRY           (1,46,29)
     DRY           (1,46,30) DRY           (1,46,31) DRY           (1,46,32) DRY           (1,46,33) DRY           (1,47,19)
     DRY           (1,47,20) DRY           (1,47,21) DRY           (1,47,22) DRY           (1,47,23) DRY           (1,47,24)
     DRY           (1,47,25) DRY           (1,47,26) DRY           (1,47,27) DRY           (1,47,28) DRY           (1,47,29)
     DRY           (1,47,30) DRY           (1,47,31) DRY           (1,47,32) DRY           (1,47,33) DRY           (1,48,17)
     DRY           (1,48,18) DRY           (1,48,19) DRY           (1,48,20) DRY           (1,48,21) DRY           (1,48,22)
     DRY           (1,48,23) DRY           (1,48,24) DRY           (1,48,25) DRY           (1,48,26) DRY           (1,48,27)
     DRY           (1,48,28) DRY           (1,48,29) DRY           (1,48,30) DRY           (1,48,31) DRY           (1,48,32)
     DRY           (1,48,33) DRY           (1,48,34) DRY           (1,49,18) DRY           (1,49,19) DRY           (1,49,20)
     DRY           (1,49,21) DRY           (1,49,22) DRY           (1,49,23) DRY           (1,49,24) DRY           (1,49,25)
     DRY           (1,49,26) DRY           (1,49,27) DRY           (1,49,28) DRY           (1,49,29) DRY           (1,49,30)
     DRY           (1,49,31) DRY           (1,49,32) DRY           (1,49,33) DRY           (1,49,34) DRY           (1,50,20)
     DRY           (1,50,21) DRY           (1,50,22) DRY           (1,50,23) DRY           (1,50,24) DRY           (1,50,25)
     DRY           (1,50,26) DRY           (1,50,27) DRY           (1,50,28) DRY           (1,50,29) DRY           (1,50,30)
     DRY           (1,50,31) DRY           (1,50,32) DRY           (1,50,33) DRY           (1,50,34) DRY           (1,50,35)
     DRY           (1,50,36) DRY           (1,51,18) DRY           (1,51,19) DRY           (1,51,20) DRY           (1,51,21)
     DRY           (1,51,22) DRY           (1,51,23) DRY           (1,51,24) DRY           (1,51,25) DRY           (1,51,26)
     DRY           (1,51,27) DRY           (1,51,28) DRY           (1,51,29) DRY           (1,51,30) DRY           (1,51,31)
     DRY           (1,51,32) DRY           (1,51,33) DRY           (1,51,34) DRY           (1,51,35) DRY           (1,51,36)
     DRY           (1,51,37) DRY           (1,52,18) DRY           (1,52,19) DRY           (1,52,20) DRY           (1,52,21)
     DRY           (1,52,22) DRY           (1,52,23) DRY           (1,52,24) DRY           (1,52,25) DRY           (1,52,26)
     DRY           (1,52,27) DRY           (1,52,28) DRY           (1,52,29) DRY           (1,52,30) DRY           (1,52,31)
     DRY           (1,52,32) DRY           (1,52,33) DRY           (1,52,34) DRY           (1,52,35) DRY           (1,52,36)
     DRY           (1,52,37) DRY           (1,52,38) DRY           (1,52,71) DRY           (1,52,72) DRY           (1,53,19)
     DRY           (1,53,20) DRY           (1,53,21) DRY           (1,53,22) DRY           (1,53,23) DRY           (1,53,24)
     DRY           (1,53,25) DRY           (1,53,26) DRY           (1,53,27) DRY           (1,53,28) DRY           (1,53,29)
     DRY           (1,53,30) DRY           (1,53,31) DRY           (1,53,32) DRY           (1,53,33) DRY           (1,53,34)
     DRY           (1,53,35) DRY           (1,53,36) DRY           (1,53,37) DRY           (1,53,38) DRY           (1,53,69)
     DRY           (1,53,70) DRY           (1,53,71) DRY           (1,53,72) DRY           (1,54,19) DRY           (1,54,20)
     DRY           (1,54,21) DRY           (1,54,22) DRY           (1,54,23) DRY           (1,54,24) DRY           (1,54,25)
     DRY           (1,54,26) DRY           (1,54,27) DRY           (1,54,28) DRY           (1,54,29) DRY           (1,54,30)
     DRY           (1,54,31) DRY           (1,54,32) DRY           (1,54,33) DRY           (1,54,34) DRY           (1,54,35)
     DRY           (1,54,36) DRY           (1,54,37) DRY           (1,54,38) DRY           (1,54,39) DRY           (1,54,50)
     DRY           (1,54,51) DRY           (1,54,64) DRY           (1,54,65) DRY           (1,54,66) DRY           (1,54,67)
     DRY           (1,54,68) DRY           (1,54,69) DRY           (1,54,70) DRY           (1,54,71) DRY           (1,54,72)
     DRY           (1,55,22) DRY           (1,55,23) DRY           (1,55,24) DRY           (1,55,25) DRY           (1,55,26)
     DRY           (1,55,27) DRY           (1,55,28) DRY           (1,55,29) DRY           (1,55,30) DRY           (1,55,31)
     DRY           (1,55,32) DRY           (1,55,33) DRY           (1,55,34) DRY           (1,55,35) DRY           (1,55,36)
     DRY           (1,55,37) DRY           (1,55,38) DRY           (1,55,39) DRY           (1,55,40) DRY           (1,55,41)
     DRY           (1,55,42) DRY           (1,55,43) DRY           (1,55,44) DRY           (1,55,45) DRY           (1,55,46)
     DRY           (1,55,47) DRY           (1,55,48) DRY           (1,55,49) DRY           (1,55,50) DRY           (1,55,51)
     DRY           (1,55,52) DRY           (1,55,53) DRY           (1,55,63) DRY           (1,55,64) DRY           (1,55,65)
     DRY           (1,55,66) DRY           (1,55,67) DRY           (1,55,68) DRY           (1,55,69) DRY           (1,55,70)
     DRY           (1,55,71) DRY           (1,55,72) DRY           (1,55,73) DRY           (1,56,22) DRY           (1,56,23)
     DRY           (1,56,24) DRY           (1,56,25) DRY           (1,56,26) DRY           (1,56,27) DRY           (1,56,28)
     DRY           (1,56,29) DRY           (1,56,30) DRY           (1,56,31) DRY           (1,56,32) DRY           (1,56,33)
     DRY           (1,56,34) DRY           (1,56,35) DRY           (1,56,36) DRY           (1,56,37) DRY           (1,56,38)
     DRY           (1,56,39) DRY           (1,56,40) DRY           (1,56,41) DRY           (1,56,42) DRY           (1,56,43)
     DRY           (1,56,44) DRY           (1,56,45) DRY           (1,56,46) DRY           (1,56,47) DRY           (1,56,48)
     DRY           (1,56,49) DRY           (1,56,50) DRY           (1,56,51) DRY           (1,56,52) DRY           (1,56,53)
     DRY           (1,56,54) DRY           (1,56,55) DRY           (1,56,56) DRY           (1,56,60) DRY           (1,56,61)
     DRY           (1,56,62) DRY           (1,56,63) DRY           (1,56,64) DRY           (1,56,65) DRY           (1,56,66)
     DRY           (1,56,67) DRY           (1,56,68) DRY           (1,57,24) DRY           (1,57,25) DRY           (1,57,26)
     DRY           (1,57,27) DRY           (1,57,28) DRY           (1,57,29) DRY           (1,57,30) DRY           (1,57,31)
     DRY           (1,57,32) DRY           (1,57,33) DRY           (1,57,34) DRY           (1,57,35) DRY           (1,57,36)
     DRY           (1,57,37) DRY           (1,57,38) DRY           (1,57,39) DRY           (1,57,40) DRY           (1,57,41)
     DRY           (1,57,42) DRY           (1,57,43) DRY           (1,57,44) DRY           (1,57,45) DRY           (1,57,46)
     DRY           (1,57,47) DRY           (1,57,48) DRY           (1,57,49) DRY           (1,57,50) DRY           (1,57,51)
     DRY           (1,57,52) DRY           (1,57,53) DRY           (1,57,54) DRY           (1,57,55) DRY           (1,57,56)
     DRY           (1,57,57) DRY           (1,57,58) DRY           (1,57,59) DRY           (1,57,60) DRY           (1,57,61)
     DRY           (1,57,62) DRY           (1,58,27) DRY           (1,58,28) DRY           (1,58,29) DRY           (1,58,30)
     DRY           (1,58,31) DRY           (1,58,32) DRY           (1,58,33) DRY           (1,58,34) DRY           (1,58,35)
     DRY           (1,58,36) DRY           (1,58,37) DRY           (1,58,38) DRY           (1,58,39) DRY           (1,58,40)
     DRY           (1,58,41) DRY           (1,58,42) DRY           (1,58,43) DRY           (1,58,44) DRY           (1,58,45)
     DRY           (1,58,46) DRY           (1,58,47) DRY           (1,58,48) DRY           (1,58,49) DRY           (1,58,50)
     DRY           (1,58,51) DRY           (1,58,52) DRY           (1,58,53) DRY           (1,58,54) DRY           (1,58,55)
     DRY           (1,58,56) DRY           (1,59,29) DRY           (1,59,30) DRY           (1,59,31) DRY           (1,59,32)
     DRY           (1,59,33) DRY           (1,59,34) DRY           (1,59,35) DRY           (1,59,36) DRY           (1,59,37)
     DRY           (1,59,38) DRY           (1,59,39) DRY           (1,59,40) DRY           (1,59,41) DRY           (1,59,42)
     DRY           (1,59,43) DRY           (1,59,44) DRY           (1,59,45) DRY           (1,59,46) DRY           (1,59,47)
     DRY           (1,59,48) DRY           (1,59,49) DRY           (1,59,50) DRY           (1,60,30) DRY           (1,60,31)
     DRY           (1,60,32) DRY           (1,60,33) DRY           (1,60,34) DRY           (1,60,35) DRY           (1,60,36)
     DRY           (1,60,37) DRY           (1,60,38) DRY           (1,60,39) DRY           (1,60,40) DRY           (1,60,41)
     DRY           (1,60,42) DRY           (1,60,43) DRY           (1,60,44) DRY           (1,61,30) DRY           (1,61,31)
     DRY           (1,61,32) DRY           (1,61,33) DRY           (1,61,34) DRY           (1,61,35) DRY           (1,61,36)
     DRY           (1,61,37) DRY           (2,39,22) DRY           (2,40,20) DRY           (2,40,21) DRY           (2,40,22)
     DRY           (2,41,21) DRY           (2,43,28) DRY           (2,44,25) DRY           (2,44,26) DRY           (2,44,27)
     DRY           (2,44,28) DRY           (2,44,29) DRY           (2,45,21) DRY           (2,45,23) DRY           (2,45,24)
     DRY           (2,45,25) DRY           (2,45,26) DRY           (2,45,27) DRY           (2,45,28) DRY           (2,45,29)
     DRY           (2,45,30) DRY           (2,45,31) DRY           (2,46,21) DRY           (2,46,22) DRY           (2,46,23)
     DRY           (2,46,24) DRY           (2,46,25) DRY           (2,46,26) DRY           (2,46,27) DRY           (2,46,28)
     DRY           (2,46,29) DRY           (2,46,30) DRY           (2,46,31) DRY           (2,46,32) DRY           (2,47,20)
     DRY           (2,47,21) DRY           (2,47,22) DRY           (2,47,23) DRY           (2,47,24) DRY           (2,47,25)
     DRY           (2,47,26) DRY           (2,47,27) DRY           (2,47,28) DRY           (2,47,29) DRY           (2,47,30)
     DRY           (2,47,31) DRY           (2,47,32) DRY           (2,48,19) DRY           (2,48,20) DRY           (2,48,21)
     DRY           (2,48,22) DRY           (2,48,23) DRY           (2,48,24) DRY           (2,48,25) DRY           (2,48,26)
     DRY           (2,48,27) DRY           (2,48,28) DRY           (2,48,29) DRY           (2,48,30) DRY           (2,48,31)
     DRY           (2,48,32) DRY           (2,48,33) DRY           (2,49,21) DRY           (2,49,22) DRY           (2,49,23)
     DRY           (2,49,24) DRY           (2,49,25) DRY           (2,49,26) DRY           (2,49,27) DRY           (2,49,28)
     DRY           (2,49,29) DRY           (2,49,30) DRY           (2,49,31) DRY           (2,49,32) DRY           (2,49,33)
     DRY           (2,50,21) DRY           (2,50,22) DRY           (2,50,23) DRY           (2,50,24) DRY           (2,50,25)
     DRY           (2,50,26) DRY           (2,50,27) DRY           (2,50,28) DRY           (2,50,29) DRY           (2,50,30)
     DRY           (2,50,31) DRY           (2,50,32) DRY           (2,50,33) DRY           (2,50,34) DRY           (2,51,18)
     DRY           (2,51,20) DRY           (2,51,22) DRY           (2,51,23) DRY           (2,51,24) DRY           (2,51,25)
     DRY           (2,51,26) DRY           (2,51,27) DRY           (2,51,28) DRY           (2,51,29) DRY           (2,51,30)
     DRY           (2,51,31) DRY           (2,51,32) DRY           (2,51,33) DRY           (2,51,34) DRY           (2,51,35)
     DRY           (2,52,19) DRY           (2,52,20) DRY           (2,52,21) DRY           (2,52,22) DRY           (2,52,23)
     DRY           (2,52,24) DRY           (2,52,25) DRY           (2,52,26) DRY           (2,52,27) DRY           (2,52,28)
     DRY           (2,52,29) DRY           (2,52,30) DRY           (2,52,31) DRY           (2,52,32) DRY           (2,52,33)
     DRY           (2,52,34) DRY           (2,52,35) DRY           (2,52,36) DRY           (2,53,20) DRY           (2,53,21)
     DRY           (2,53,22) DRY           (2,53,23) DRY           (2,53,24) DRY           (2,53,25) DRY           (2,53,26)
     DRY           (2,53,27) DRY           (2,53,28) DRY           (2,53,29) DRY           (2,53,30) DRY           (2,53,31)
     DRY           (2,53,32) DRY           (2,53,33) DRY           (2,53,34) DRY           (2,53,35) DRY           (2,53,36)
     DRY           (2,53,37) DRY           (2,53,71) DRY           (2,54,23) DRY           (2,54,24) DRY           (2,54,25)
     DRY           (2,54,26) DRY           (2,54,27) DRY           (2,54,28) DRY           (2,54,29) DRY           (2,54,30)
     DRY           (2,54,31) DRY           (2,54,32) DRY           (2,54,33) DRY           (2,54,34) DRY           (2,54,35)
     DRY           (2,54,36) DRY           (2,54,37) DRY           (2,54,38) DRY           (2,54,69) DRY           (2,54,70)
     DRY           (2,54,71) DRY           (2,54,72) DRY           (2,55,23) DRY           (2,55,24) DRY           (2,55,25)
     DRY           (2,55,26) DRY           (2,55,27) DRY           (2,55,28) DRY           (2,55,29) DRY           (2,55,30)
     DRY           (2,55,31) DRY           (2,55,32) DRY           (2,55,33) DRY           (2,55,34) DRY           (2,55,35)
     DRY           (2,55,36) DRY           (2,55,37) DRY           (2,55,38) DRY           (2,55,67) DRY           (2,55,68)
     DRY           (2,55,69) DRY           (2,55,70) DRY           (2,55,71) DRY           (2,55,72) DRY           (2,56,22)
     DRY           (2,56,23) DRY           (2,56,24) DRY           (2,56,25) DRY           (2,56,26) DRY           (2,56,27)
     DRY           (2,56,28) DRY           (2,56,29) DRY           (2,56,30) DRY           (2,56,31) DRY           (2,56,32)
     DRY           (2,56,33) DRY           (2,56,34) DRY           (2,56,35) DRY           (2,56,36) DRY           (2,56,37)
     DRY           (2,56,38) DRY           (2,56,39) DRY           (2,56,40) DRY           (2,56,41) DRY           (2,56,42)
     DRY           (2,56,43) DRY           (2,56,44) DRY           (2,56,45) DRY           (2,56,46) DRY           (2,56,47)
     DRY           (2,56,48) DRY           (2,56,49) DRY           (2,56,50) DRY           (2,56,51) DRY           (2,56,52)
     DRY           (2,56,67) DRY           (2,56,68) DRY           (2,57,24) DRY           (2,57,25) DRY           (2,57,26)
     DRY           (2,57,27) DRY           (2,57,28) DRY           (2,57,29) DRY           (2,57,30) DRY           (2,57,31)
     DRY           (2,57,32) DRY           (2,57,33) DRY           (2,57,34) DRY           (2,57,35) DRY           (2,57,36)
     DRY           (2,57,37) DRY           (2,57,38) DRY           (2,57,39) DRY           (2,57,40) DRY           (2,57,41)
     DRY           (2,57,42) DRY           (2,57,43) DRY           (2,57,44) DRY           (2,57,45) DRY           (2,57,46)
     DRY           (2,57,47) DRY           (2,57,48) DRY           (2,57,49) DRY           (2,57,50) DRY           (2,57,51)
     DRY           (2,57,52) DRY           (2,57,53) DRY           (2,57,54) DRY           (2,57,55) DRY           (2,57,56)
     DRY           (2,57,61) DRY           (2,58,27) DRY           (2,58,28) DRY           (2,58,29) DRY           (2,58,30)
     DRY           (2,58,31) DRY           (2,58,32) DRY           (2,58,33) DRY           (2,58,34) DRY           (2,58,35)
     DRY           (2,58,36) DRY           (2,58,37) DRY           (2,58,38) DRY           (2,58,39) DRY           (2,58,40)
     DRY           (2,58,41) DRY           (2,58,42) DRY           (2,58,43) DRY           (2,58,44) DRY           (2,58,45)
     DRY           (2,58,46) DRY           (2,58,47) DRY           (2,58,48) DRY           (2,58,49) DRY           (2,58,50)
     DRY           (2,58,51) DRY           (2,58,52) DRY           (2,58,53) DRY           (2,58,54) DRY           (2,58,55)
     DRY           (2,58,56) DRY           (2,59,29) DRY           (2,59,30) DRY           (2,59,31) DRY           (2,59,32)
     DRY           (2,59,33) DRY           (2,59,34) DRY           (2,59,35) DRY           (2,59,36) DRY           (2,59,37)
     DRY           (2,59,38) DRY           (2,59,39) DRY           (2,59,40) DRY           (2,59,41) DRY           (2,59,42)
     DRY           (2,59,43) DRY           (2,59,44) DRY           (2,59,45) DRY           (2,59,46) DRY           (2,59,47)
     DRY           (2,59,48) DRY           (2,59,49) DRY           (2,59,50) DRY           (2,60,30) DRY           (2,60,31)
     DRY           (2,60,32) DRY           (2,60,33) DRY           (2,60,34) DRY           (2,60,35) DRY           (2,60,36)
     DRY           (2,60,37) DRY           (2,60,38) DRY           (2,60,39) DRY           (2,60,40) DRY           (2,60,41)
     DRY           (2,60,42) DRY           (2,60,43) DRY           (2,60,44) DRY           (2,61,30) DRY           (2,61,31)
     DRY           (2,61,32) DRY           (2,61,33) DRY           (2,61,34) DRY           (2,61,35) DRY           (2,61,36)
     DRY           (2,61,37) DRY           (3,45,25) DRY           (3,45,26) DRY           (3,45,27) DRY           (3,45,28)
     DRY           (3,45,29) DRY           (3,46,24) DRY           (3,46,25) DRY           (3,46,26) DRY           (3,46,27)
     DRY           (3,46,28) DRY           (3,46,29) DRY           (3,46,30) DRY           (3,47,22) DRY           (3,47,23)
     DRY           (3,47,24) DRY           (3,47,25) DRY           (3,47,26) DRY           (3,47,27) DRY           (3,47,28)
     DRY           (3,47,29) DRY           (3,47,30) DRY           (3,47,31) DRY           (3,47,32) DRY           (3,48,24)
     DRY           (3,48,25) DRY           (3,48,26) DRY           (3,48,27) DRY           (3,48,28) DRY           (3,48,29)
     DRY           (3,48,30) DRY           (3,48,31) DRY           (3,48,32) DRY           (3,49,23) DRY           (3,49,24)
     DRY           (3,49,25) DRY           (3,49,26) DRY           (3,49,27) DRY           (3,49,28) DRY           (3,49,29)
     DRY           (3,49,30) DRY           (3,49,31) DRY           (3,49,32) DRY           (3,49,33) DRY           (3,50,23)
     DRY           (3,50,24) DRY           (3,50,25) DRY           (3,50,26) DRY           (3,50,27) DRY           (3,50,28)
     DRY           (3,50,29) DRY           (3,50,30) DRY           (3,50,31) DRY           (3,50,32) DRY           (3,50,33)
     DRY           (3,51,24) DRY           (3,51,25) DRY           (3,51,26) DRY           (3,51,27) DRY           (3,51,28)
     DRY           (3,51,29) DRY           (3,51,30) DRY           (3,51,31) DRY           (3,51,32) DRY           (3,51,33)
     DRY           (3,52,26) DRY           (3,52,27) DRY           (3,52,28) DRY           (3,52,29) DRY           (3,52,30)
     DRY           (3,52,31) DRY           (3,52,32) DRY           (3,52,33) DRY           (3,53,22) DRY           (3,53,23)
     DRY           (3,53,24) DRY           (3,53,25) DRY           (3,53,26) DRY           (3,53,27) DRY           (3,53,28)
     DRY           (3,53,29) DRY           (3,53,30) DRY           (3,53,31) DRY           (3,53,32) DRY           (3,53,33)
     DRY           (3,54,23) DRY           (3,54,24) DRY           (3,54,25) DRY           (3,54,26) DRY           (3,54,27)
     DRY           (3,54,28) DRY           (3,54,29) DRY           (3,54,30) DRY           (3,54,31) DRY           (3,54,32)
     DRY           (3,54,33) DRY           (3,54,34) DRY           (3,55,24) DRY           (3,55,25) DRY           (3,55,26)
     DRY           (3,55,27) DRY           (3,55,28) DRY           (3,55,29) DRY           (3,55,30) DRY           (3,55,31)
     DRY           (3,55,32) DRY           (3,55,33) DRY           (3,55,34) DRY           (3,55,35) DRY           (3,55,36)
     DRY           (3,55,37) DRY           (3,55,69) DRY           (3,55,70) DRY           (3,55,71) DRY           (3,56,25)
     DRY           (3,56,26) DRY           (3,56,27) DRY           (3,56,28) DRY           (3,56,29) DRY           (3,56,30)
     DRY           (3,56,31) DRY           (3,56,32) DRY           (3,56,33) DRY           (3,56,34) DRY           (3,56,35)
     DRY           (3,56,36) DRY           (3,56,37) DRY           (3,56,38) DRY           (3,56,68) DRY           (3,57,24)
     DRY           (3,57,26) DRY           (3,57,27) DRY           (3,57,28) DRY           (3,57,29) DRY           (3,57,30)
     DRY           (3,57,31) DRY           (3,57,32) DRY           (3,57,33) DRY           (3,57,34) DRY           (3,57,35)
     DRY           (3,57,36) DRY           (3,57,37) DRY           (3,57,38) DRY           (3,57,41) DRY           (3,57,42)
     DRY           (3,57,43) DRY           (3,57,44) DRY           (3,57,45) DRY           (3,57,46) DRY           (3,57,47)
     DRY           (3,57,48) DRY           (3,57,49) DRY           (3,57,50) DRY           (3,57,51) DRY           (3,57,52)
     DRY           (3,57,53) DRY           (3,58,27) DRY           (3,58,28) DRY           (3,58,29) DRY           (3,58,30)
     DRY           (3,58,31) DRY           (3,58,32) DRY           (3,58,33) DRY           (3,58,34) DRY           (3,58,35)
     DRY           (3,58,36) DRY           (3,58,37) DRY           (3,58,38) DRY           (3,58,41) DRY           (3,58,42)
     DRY           (3,58,43) DRY           (3,58,44) DRY           (3,58,45) DRY           (3,58,46) DRY           (3,58,47)
     DRY           (3,58,48) DRY           (3,58,49) DRY           (3,58,50) DRY           (3,58,51) DRY           (3,58,52)
     DRY           (3,58,53) DRY           (3,58,54) DRY           (3,58,55) DRY           (3,58,56) DRY           (3,59,29)
     DRY           (3,59,30) DRY           (3,59,31) DRY           (3,59,32) DRY           (3,59,33) DRY           (3,59,34)
     DRY           (3,59,35) DRY           (3,59,36) DRY           (3,59,37) DRY           (3,59,38) DRY           (3,59,39)
     DRY           (3,59,41) DRY           (3,59,42) DRY           (3,59,43) DRY           (3,59,44) DRY           (3,59,45)
     DRY           (3,59,46) DRY           (3,59,47) DRY           (3,59,48) DRY           (3,59,49) DRY           (3,59,50)
     DRY           (3,60,30) DRY           (3,60,31) DRY           (3,60,32) DRY           (3,60,33) DRY           (3,60,34)
     DRY           (3,60,35) DRY           (3,60,36) DRY           (3,60,37) DRY           (3,60,38) DRY           (3,60,39)
     DRY           (3,60,41) DRY           (3,60,42) DRY           (3,60,43) DRY           (3,60,44) DRY           (3,61,30)
     DRY           (3,61,31) DRY           (3,61,32) DRY           (3,61,33) DRY           (3,61,34) DRY           (3,61,35)
     DRY           (3,61,36) DRY           (3,61,37) DRY           (4,46,26) DRY           (4,46,27) DRY           (4,46,28)
     DRY           (4,46,29) DRY           (4,47,24) DRY           (4,47,25) DRY           (4,47,26) DRY           (4,47,27)
     DRY           (4,47,28) DRY           (4,47,29) DRY           (4,47,30) DRY           (4,48,25) DRY           (4,48,26)
     DRY           (4,48,27) DRY           (4,48,28) DRY           (4,48,29) DRY           (4,48,30) DRY           (4,48,31)
     DRY           (4,48,32) DRY           (4,49,24) DRY           (4,49,25) DRY           (4,49,26) DRY           (4,49,27)
     DRY           (4,49,28) DRY           (4,49,29) DRY           (4,49,30) DRY           (4,49,31) DRY           (4,49,32)
     DRY           (4,50,24) DRY           (4,50,25) DRY           (4,50,26) DRY           (4,50,27) DRY           (4,50,28)
     DRY           (4,50,29) DRY           (4,50,31) DRY           (4,50,32) DRY           (4,51,28) DRY           (4,51,29)
     DRY           (4,51,31) DRY           (4,51,32) DRY           (4,52,28) DRY           (4,52,29) DRY           (4,52,30)
     DRY           (4,52,31) DRY           (4,52,32) DRY           (4,53,28) DRY           (4,53,29) DRY           (4,53,30)
     DRY           (4,53,31) DRY           (4,53,32) DRY           (4,54,24) DRY           (4,54,25) DRY           (4,54,26)
     DRY           (4,54,27) DRY           (4,54,28) DRY           (4,54,29) DRY           (4,54,30) DRY           (4,54,31)
     DRY           (4,54,32) DRY           (4,55,24) DRY           (4,55,25) DRY           (4,55,26) DRY           (4,55,27)
     DRY           (4,55,28) DRY           (4,55,29) DRY           (4,55,30) DRY           (4,55,31) DRY           (4,55,32)
     DRY           (4,56,26) DRY           (4,56,27) DRY           (4,56,28) DRY           (4,56,29) DRY           (4,56,30)
     DRY           (4,56,31) DRY           (4,56,32) DRY           (4,57,28) DRY           (4,57,29) DRY           (4,57,32)
     DRY           (4,58,44) DRY           (4,58,45) DRY           (4,58,46) DRY           (4,58,47) DRY           (4,58,48)
     DRY           (4,58,49) DRY           (4,58,50) DRY           (4,58,51) DRY           (4,58,52) DRY           (4,58,53)
     DRY           (4,59,44) DRY           (4,59,45) DRY           (4,59,46) DRY           (4,59,47) DRY           (4,59,48)
     DRY           (4,59,49) DRY           (4,59,50) DRY           (4,60,44) DRY           (5,46,28) DRY           (5,47,26)
     DRY           (5,47,27) DRY           (5,47,28) DRY           (5,47,29) DRY           (5,48,26) DRY           (5,48,27)
     DRY           (5,48,28) DRY           (5,48,29) DRY           (5,48,30) DRY           (5,49,26) DRY           (5,49,27)
     DRY           (5,49,28) DRY           (5,49,29) DRY           (5,49,30) DRY           (5,50,28) DRY           (5,53,29)
     DRY           (5,53,30) DRY           (5,54,30) DRY           (5,54,31) DRY           (5,55,27) DRY           (5,55,28)
     DRY           (5,55,31) DRY           (5,56,28) DRY           (5,56,29) DRY           (5,56,30) DRY           (5,56,31)
     DRY           (6,47,28) DRY           (6,48,27) DRY           (6,48,28) DRY           (6,48,29) DRY           (6,49,27)
     DRY           (6,49,28) DRY           (6,49,29)
    BINARY GRID INFORMATION WILL BE WRITTEN TO:
      UNIT NUMBER: 1011
      FILE NAME: D:\OneDrive - UNIVERSIDAD INDUSTRIAL DE SANTANDER\Maestria\06_Tesis\01_Tesis_Dev\09_Python\Main_Mod\data\modelo_Norte\modelo_Norte.dis.grb

 OPENED D:\OneDrive - UNIVERSIDAD INDUSTRIAL DE SANTANDER\Maestria\06_Tesis\01_Tesis_Dev\09_Python\Main_Mod\data\modelo_Norte\modelo_Norte.dis.grb
 FILE TYPE:DATA(BINARY)   UNIT 1011   STATUS:REPLACE             
 FORMAT:UNFORMATTED            ACCESS:STREAM              
 ACTION:READWRITE           

      THE LAST TIME STEP WILL BE PRINTED
      THE LAST TIME STEP WILL BE PRINTED
 # File generated by Flopy version 3.3.2 on 02/16/2021 at 14:18:42.

 PROCESSING OC OPTIONS

    BUDGET INFORMATION WILL BE WRITTEN TO:
      UNIT NUMBER: 1012
      FILE NAME: modelo_Norte.cbb

 OPENED modelo_Norte.cbb
 FILE TYPE:DATA(BINARY)   UNIT 1012   STATUS:REPLACE             
 FORMAT:UNFORMATTED            ACCESS:STREAM              
 ACTION:READWRITE           

    HEAD INFORMATION WILL BE WRITTEN TO:
      UNIT NUMBER: 1013
      FILE NAME: modelo_Norte.hds

 OPENED modelo_Norte.hds
 FILE TYPE:DATA(BINARY)   UNIT 1013   STATUS:REPLACE             
 FORMAT:UNFORMATTED            ACCESS:STREAM              
 ACTION:READWRITE           

 END OF OC OPTIONS

start timestep kper="1" kstp="1" mode="normal"


 BEGIN READING OUTPUT CONTROL FOR STRESS PERIOD 1
      ALL TIME STEPS WILL BE SAVED
      ALL TIME STEPS WILL BE SAVED
      THE LAST TIME STEP WILL BE PRINTED

 END READING OUTPUT CONTROL FOR STRESS PERIOD 1
 ---------------------------------------------------
  RCH NO.    LAYER    ROW     COL       RECHARGE    
 ---------------------------------------------------
     1         1       1      16     1.273148150E-06
     2         1       2      15     1.273148150E-06
     3         1       2      16     1.273148150E-06
     4         1       3      15     1.273148150E-06
     5         1       3      16     1.273148150E-06
     6         1       4      15     1.273148150E-06
     7         1       4      16     1.273148150E-06
     8         1       5      15     1.273148150E-06
     9         1       5      16     1.273148150E-06
     10        1       5      30     1.273148150E-06
     11        1       5      31     1.273148150E-06
     12        1       6      14     1.273148150E-06
     13        1       6      15     1.273148150E-06
     14        1       6      16     1.273148150E-06
     15        1       6      29     1.273148150E-06
     16        1       6      30     1.273148150E-06
     17        1       6      31     1.273148150E-06
     18        1       7      14     1.273148150E-06
     19        1       7      15     1.273148150E-06
     20        1       7      16     1.273148150E-06
     21        1       7      17     1.273148150E-06
     22        1       7      30     1.273148150E-06
     23        1       7      31     1.273148150E-06
     24        1       7      32     1.273148150E-06
     25        1       8      15     1.273148150E-06
     26        1       8      16     1.273148150E-06
     27        1       8      17     1.273148150E-06
     28        1       8      18     1.273148150E-06
     29        1       8      19     1.273148150E-06
     30        1       8      30     1.273148150E-06
     31        1       8      31     1.273148150E-06
     32        1       8      32     1.273148150E-06
     33        1       9      15     1.273148150E-06
     34        1       9      16     1.273148150E-06
     35        1       9      17     1.273148150E-06
     36        1       9      18     1.273148150E-06
     37        1       9      19     1.273148150E-06
     38        1       9      26     1.273148150E-06
     39        1       9      27     1.273148150E-06
     40        1       9      30     1.273148150E-06
     41        1       9      31     1.273148150E-06
     42        1       9      32     1.273148150E-06
     43        1      10      15     1.273148150E-06
     44        1      10      16     1.273148150E-06
     45        1      10      17     1.273148150E-06
     46        1      10      18     1.273148150E-06
     47        1      10      19     1.273148150E-06
     48        1      10      26     1.273148150E-06
     49        1      10      27     1.273148150E-06
     50        1      10      31     1.273148150E-06
     51        1      10      32     1.273148150E-06
     52        1      11      16     1.273148150E-06
     53        1      11      17     1.273148150E-06
     54        1      11      18     1.273148150E-06
     55        1      11      19     1.273148150E-06
     56        1      11      25     1.273148150E-06
     57        1      11      26     1.273148150E-06
     58        1      11      31     1.273148150E-06
     59        1      11      32     1.273148150E-06
     60        1      12      16     1.273148150E-06
     61        1      12      17     1.273148150E-06
     62        1      12      18     1.273148150E-06
     63        1      12      19     1.273148150E-06
     64        1      12      25     1.273148150E-06
     65        1      12      26     1.273148150E-06
     66        1      12      27     1.273148150E-06
     67        1      12      28     1.273148150E-06
     68        1      12      29     1.273148150E-06
     69        1      12      30     1.273148150E-06
     70        1      12      31     1.273148150E-06
     71        1      12      32     1.273148150E-06
     72        1      12      33     1.273148150E-06
     73        1      13      16     1.273148150E-06
     74        1      13      17     1.273148150E-06
     75        1      13      18     1.273148150E-06
     76        1      13      19     1.273148150E-06
     77        1      13      25     1.273148150E-06
     78        1      13      26     1.273148150E-06
     79        1      13      27     1.273148150E-06
     80        1      13      28     1.273148150E-06
     81        1      13      29     1.273148150E-06
     82        1      13      30     1.273148150E-06
     83        1      13      31     1.273148150E-06
     84        1      13      32     1.273148150E-06
     85        1      13      33     1.273148150E-06
     86        1      13      34     1.273148150E-06
     87        1      14      16     1.273148150E-06
     88        1      14      17     1.273148150E-06
     89        1      14      18     1.273148150E-06
     90        1      14      25     1.273148150E-06
     91        1      14      26     1.273148150E-06
     92        1      14      27     1.273148150E-06
     93        1      14      28     1.273148150E-06
     94        1      14      29     1.273148150E-06
     95        1      14      30     1.273148150E-06
     96        1      14      31     1.273148150E-06
     97        1      14      32     1.273148150E-06
     98        1      14      33     1.273148150E-06
     99        1      14      34     1.273148150E-06
    100        1      14      35     1.273148150E-06
    101        1      15      16     1.273148150E-06
    102        1      15      17     1.273148150E-06
    103        1      15      18     1.273148150E-06
    104        1      15      24     1.273148150E-06
    105        1      15      25     1.273148150E-06
    106        1      15      26     1.273148150E-06
    107        1      15      27     1.273148150E-06
    108        1      15      28     1.273148150E-06
    109        1      15      29     1.273148150E-06
    110        1      15      30     1.273148150E-06
    111        1      15      31     1.273148150E-06
    112        1      15      32     1.273148150E-06
    113        1      15      33     1.273148150E-06
    114        1      15      34     1.273148150E-06
    115        1      15      35     1.273148150E-06
    116        1      16      16     1.273148150E-06
    117        1      16      17     1.273148150E-06
    118        1      16      18     1.273148150E-06
    119        1      16      24     1.273148150E-06
    120        1      16      25     1.273148150E-06
    121        1      16      26     1.273148150E-06
    122        1      16      27     1.273148150E-06
    123        1      16      29     1.273148150E-06
    124        1      16      30     1.273148150E-06
    125        1      16      31     1.273148150E-06
    126        1      16      32     1.273148150E-06
    127        1      16      33     1.273148150E-06
    128        1      16      34     1.273148150E-06
    129        1      16      35     1.273148150E-06
    130        1      17      15     1.273148150E-06
    131        1      17      16     1.273148150E-06
    132        1      17      17     1.273148150E-06
    133        1      17      18     1.273148150E-06
    134        1      17      24     1.273148150E-06
    135        1      17      25     1.273148150E-06
    136        1      17      26     1.273148150E-06
    137        1      17      27     1.273148150E-06
    138        1      17      28     1.273148150E-06
    139        1      17      29     1.273148150E-06
    140        1      17      30     1.273148150E-06
    141        1      17      31     1.273148150E-06
    142        1      17      32     1.273148150E-06
    143        1      17      33     1.273148150E-06
    144        1      17      34     1.273148150E-06
    145        1      17      35     1.273148150E-06
    146        1      18      15     1.273148150E-06
    147        1      18      16     1.273148150E-06
    148        1      18      17     1.273148150E-06
    149        1      18      18     1.273148150E-06
    150        1      18      19     1.273148150E-06
    151        1      18      23     1.273148150E-06
    152        1      18      24     1.273148150E-06
    153        1      18      25     1.273148150E-06
    154        1      18      26     1.273148150E-06
    155        1      18      27     1.273148150E-06
    156        1      18      28     1.273148150E-06
    157        1      18      29     1.273148150E-06
    158        1      18      30     1.273148150E-06
    159        1      18      31     1.273148150E-06
    160        1      18      32     1.273148150E-06
    161        1      18      33     1.273148150E-06
    162        1      18      34     1.273148150E-06
    163        1      18      35     1.273148150E-06
    164        1      18      43     1.273148150E-06
    165        1      19      15     1.273148150E-06
    166        1      19      16     1.273148150E-06
    167        1      19      17     1.273148150E-06
    168        1      19      18     1.273148150E-06
    169        1      19      19     1.273148150E-06
    170        1      19      23     1.273148150E-06
    171        1      19      24     1.273148150E-06
    172        1      19      25     1.273148150E-06
    173        1      19      26     1.273148150E-06
    174        1      19      27     1.273148150E-06
    175        1      19      28     1.273148150E-06
    176        1      19      29     1.273148150E-06
    177        1      19      30     1.273148150E-06
    178        1      19      31     1.273148150E-06
    179        1      19      32     1.273148150E-06
    180        1      19      33     1.273148150E-06
    181        1      19      34     1.273148150E-06
    182        1      19      35     1.273148150E-06
    183        1      19      36     1.273148150E-06
    184        1      19      37     1.273148150E-06
    185        1      19      38     1.273148150E-06
    186        1      19      39     1.273148150E-06
    187        1      19      40     1.273148150E-06
    188        1      19      41     1.273148150E-06
    189        1      19      42     1.273148150E-06
    190        1      19      43     1.273148150E-06
    191        1      19      44     1.273148150E-06
    192        1      19      45     1.273148150E-06
    193        1      20      15     1.273148150E-06
    194        1      20      16     1.273148150E-06
    195        1      20      17     1.273148150E-06
    196        1      20      18     1.273148150E-06
    197        1      20      23     1.273148150E-06
    198        1      20      24     1.273148150E-06
    199        1      20      25     1.273148150E-06
    200        1      20      26     1.273148150E-06
    201        1      20      27     1.273148150E-06
    202        1      20      28     1.273148150E-06
    203        1      20      32     1.273148150E-06
    204        1      20      33     1.273148150E-06
    205        1      20      34     1.273148150E-06
    206        1      20      35     1.273148150E-06
    207        1      20      36     1.273148150E-06
    208        1      20      37     1.273148150E-06
    209        1      20      38     1.273148150E-06
    210        1      20      39     1.273148150E-06
    211        1      20      40     1.273148150E-06
    212        1      20      41     1.273148150E-06
    213        1      20      42     1.273148150E-06
    214        1      20      43     1.273148150E-06
    215        1      20      44     1.273148150E-06
    216        1      20      45     1.273148150E-06
    217        1      20      46     1.273148150E-06
    218        1      21      15     1.273148150E-06
    219        1      21      16     1.273148150E-06
    220        1      21      17     1.273148150E-06
    221        1      21      18     1.273148150E-06
    222        1      21      21     1.273148150E-06
    223        1      21      22     1.273148150E-06
    224        1      21      23     1.273148150E-06
    225        1      21      24     1.273148150E-06
    226        1      21      25     1.273148150E-06
    227        1      21      26     1.273148150E-06
    228        1      21      27     1.273148150E-06
    229        1      21      28     1.273148150E-06
    230        1      21      29     1.273148150E-06
    231        1      21      32     1.273148150E-06
    232        1      21      33     1.273148150E-06
    233        1      21      34     1.273148150E-06
    234        1      21      35     1.273148150E-06
    235        1      21      36     1.273148150E-06
    236        1      21      37     1.273148150E-06
    237        1      21      38     1.273148150E-06
    238        1      21      39     1.273148150E-06
    239        1      21      40     1.273148150E-06
    240        1      21      41     1.273148150E-06
    241        1      21      43     1.273148150E-06
    242        1      21      44     1.273148150E-06
    243        1      21      45     1.273148150E-06
    244        1      21      46     1.273148150E-06
    245        1      22      15     1.273148150E-06
    246        1      22      16     1.273148150E-06
    247        1      22      17     1.273148150E-06
    248        1      22      18     1.273148150E-06
    249        1      22      19     1.273148150E-06
    250        1      22      21     1.273148150E-06
    251        1      22      22     1.273148150E-06
    252        1      22      23     1.273148150E-06
    253        1      22      24     1.273148150E-06
    254        1      22      25     1.273148150E-06
    255        1      22      26     1.273148150E-06
    256        1      22      27     1.273148150E-06
    257        1      22      28     1.273148150E-06
    258        1      22      29     1.273148150E-06
    259        1      22      32     1.273148150E-06
    260        1      22      33     1.273148150E-06
    261        1      22      34     1.273148150E-06
    262        1      22      35     1.273148150E-06
    263        1      22      36     1.273148150E-06
    264        1      22      37     1.273148150E-06
    265        1      22      38     1.273148150E-06
    266        1      22      39     1.273148150E-06
    267        1      22      40     1.273148150E-06
    268        1      22      41     1.273148150E-06
    269        1      22      42     1.273148150E-06
    270        1      22      43     1.273148150E-06
    271        1      22      44     1.273148150E-06
    272        1      22      45     1.273148150E-06
    273        1      22      46     1.273148150E-06
    274        1      22      47     1.273148150E-06
    275        1      22      48     1.273148150E-06
    276        1      22      49     1.273148150E-06
    277        1      23      15     1.273148150E-06
    278        1      23      16     1.273148150E-06
    279        1      23      17     1.273148150E-06
    280        1      23      18     1.273148150E-06
    281        1      23      19     1.273148150E-06
    282        1      23      21     1.273148150E-06
    283        1      23      22     1.273148150E-06
    284        1      23      23     1.273148150E-06
    285        1      23      24     1.273148150E-06
    286        1      23      25     1.273148150E-06
    287        1      23      26     1.273148150E-06
    288        1      23      27     1.273148150E-06
    289        1      23      28     1.273148150E-06
    290        1      23      29     1.273148150E-06
    291        1      23      30     1.273148150E-06
    292        1      23      32     1.273148150E-06
    293        1      23      33     1.273148150E-06
    294        1      23      34     1.273148150E-06
    295        1      23      35     1.273148150E-06
    296        1      23      36     1.273148150E-06
    297        1      23      37     1.273148150E-06
    298        1      23      38     1.273148150E-06
    299        1      23      39     1.273148150E-06
    300        1      23      40     1.273148150E-06
    301        1      23      41     1.273148150E-06
    302        1      23      42     1.273148150E-06
    303        1      23      43     1.273148150E-06
    304        1      23      44     1.273148150E-06
    305        1      23      45     1.273148150E-06
    306        1      23      46     1.273148150E-06
    307        1      23      47     1.273148150E-06
    308        1      23      48     1.273148150E-06
    309        1      23      49     1.273148150E-06
    310        1      24      15     1.273148150E-06
    311        1      24      16     1.273148150E-06
    312        1      24      17     1.273148150E-06
    313        1      24      18     1.273148150E-06
    314        1      24      19     1.273148150E-06
    315        1      24      21     1.273148150E-06
    316        1      24      22     1.273148150E-06
    317        1      24      23     1.273148150E-06
    318        1      24      24     1.273148150E-06
    319        1      24      25     1.273148150E-06
    320        1      24      26     1.273148150E-06
    321        1      24      27     1.273148150E-06
    322        1      24      28     1.273148150E-06
    323        1      24      29     1.273148150E-06
    324        1      24      30     1.273148150E-06
    325        1      24      32     1.273148150E-06
    326        1      24      33     1.273148150E-06
    327        1      24      34     1.273148150E-06
    328        1      24      35     1.273148150E-06
    329        1      24      36     1.273148150E-06
    330        1      24      37     1.273148150E-06
    331        1      24      38     1.273148150E-06
    332        1      24      39     1.273148150E-06
    333        1      24      40     1.273148150E-06
    334        1      24      41     1.273148150E-06
    335        1      24      42     1.273148150E-06
    336        1      24      43     1.273148150E-06
    337        1      24      44     1.273148150E-06
    338        1      24      45     1.273148150E-06
    339        1      24      46     1.273148150E-06
    340        1      24      47     1.273148150E-06
    341        1      24      48     1.273148150E-06
    342        1      24      49     1.273148150E-06
    343        1      25      15     1.273148150E-06
    344        1      25      16     1.273148150E-06
    345        1      25      17     1.273148150E-06
    346        1      25      18     1.273148150E-06
    347        1      25      19     1.273148150E-06
    348        1      25      21     1.273148150E-06
    349        1      25      22     1.273148150E-06
    350        1      25      23     1.273148150E-06
    351        1      25      24     1.273148150E-06
    352        1      25      25     1.273148150E-06
    353        1      25      26     1.273148150E-06
    354        1      25      27     1.273148150E-06
    355        1      25      28     1.273148150E-06
    356        1      25      29     1.273148150E-06
    357        1      25      32     1.273148150E-06
    358        1      25      33     1.273148150E-06
    359        1      25      34     1.273148150E-06
    360        1      25      35     1.273148150E-06
    361        1      25      36     1.273148150E-06
    362        1      25      40     1.273148150E-06
    363        1      25      41     1.273148150E-06
    364        1      25      42     1.273148150E-06
    365        1      25      43     1.273148150E-06
    366        1      25      44     1.273148150E-06
    367        1      25      45     1.273148150E-06
    368        1      25      46     1.273148150E-06
    369        1      25      47     1.273148150E-06
    370        1      25      48     1.273148150E-06
    371        1      25      49     1.273148150E-06
    372        1      26      14     1.273148150E-06
    373        1      26      15     1.273148150E-06
    374        1      26      16     1.273148150E-06
    375        1      26      17     1.273148150E-06
    376        1      26      18     1.273148150E-06
    377        1      26      19     1.273148150E-06
    378        1      26      20     1.273148150E-06
    379        1      26      21     1.273148150E-06
    380        1      26      22     1.273148150E-06
    381        1      26      23     1.273148150E-06
    382        1      26      24     1.273148150E-06
    383        1      26      25     1.273148150E-06
    384        1      26      26     1.273148150E-06
    385        1      26      27     1.273148150E-06
    386        1      26      28     1.273148150E-06
    387        1      26      29     1.273148150E-06
    388        1      26      34     1.273148150E-06
    389        1      26      35     1.273148150E-06
    390        1      26      36     1.273148150E-06
    391        1      26      37     1.273148150E-06
    392        1      26      40     1.273148150E-06
    393        1      26      41     1.273148150E-06
    394        1      26      42     1.273148150E-06
    395        1      26      43     1.273148150E-06
    396        1      26      44     1.273148150E-06
    397        1      26      45     1.273148150E-06
    398        1      26      46     1.273148150E-06
    399        1      26      47     1.273148150E-06
    400        1      26      48     1.273148150E-06
    401        1      26      49     1.273148150E-06
    402        1      26      50     1.273148150E-06
    403        1      26      51     1.273148150E-06
    404        1      27      14     1.273148150E-06
    405        1      27      15     1.273148150E-06
    406        1      27      16     1.273148150E-06
    407        1      27      17     1.273148150E-06
    408        1      27      18     1.273148150E-06
    409        1      27      19     1.273148150E-06
    410        1      27      20     1.273148150E-06
    411        1      27      22     1.273148150E-06
    412        1      27      23     1.273148150E-06
    413        1      27      24     1.273148150E-06
    414        1      27      25     1.273148150E-06
    415        1      27      26     1.273148150E-06
    416        1      27      27     1.273148150E-06
    417        1      27      35     1.273148150E-06
    418        1      27      36     1.273148150E-06
    419        1      27      37     1.273148150E-06
    420        1      27      38     1.273148150E-06
    421        1      27      41     1.273148150E-06
    422        1      27      42     1.273148150E-06
    423        1      27      43     1.273148150E-06
    424        1      27      44     1.273148150E-06
    425        1      27      45     1.273148150E-06
    426        1      27      46     1.273148150E-06
    427        1      27      47     1.273148150E-06
    428        1      27      48     1.273148150E-06
    429        1      27      49     1.273148150E-06
    430        1      27      50     1.273148150E-06
    431        1      27      51     1.273148150E-06
    432        1      27      52     1.273148150E-06
    433        1      27      53     1.273148150E-06
    434        1      27      54     1.273148150E-06
    435        1      27      55     1.273148150E-06
    436        1      27      56     1.273148150E-06
    437        1      27      57     1.273148150E-06
    438        1      27      58     1.273148150E-06
    439        1      27      59     1.273148150E-06
    440        1      27      60     1.273148150E-06
    441        1      28      14     1.273148150E-06
    442        1      28      15     1.273148150E-06
    443        1      28      16     1.273148150E-06
    444        1      28      17     1.273148150E-06
    445        1      28      18     1.273148150E-06
    446        1      28      19     1.273148150E-06
    447        1      28      20     1.273148150E-06
    448        1      28      22     1.273148150E-06
    449        1      28      23     1.273148150E-06
    450        1      28      24     1.273148150E-06
    451        1      28      25     1.273148150E-06
    452        1      28      36     1.273148150E-06
    453        1      28      37     1.273148150E-06
    454        1      28      38     1.273148150E-06
    455        1      28      39     1.273148150E-06
    456        1      28      40     1.273148150E-06
    457        1      28      41     1.273148150E-06
    458        1      28      42     1.273148150E-06
    459        1      28      43     1.273148150E-06
    460        1      28      44     1.273148150E-06
    461        1      28      45     1.273148150E-06
    462        1      28      46     1.273148150E-06
    463        1      28      47     1.273148150E-06
    464        1      28      48     1.273148150E-06
    465        1      28      49     1.273148150E-06
    466        1      28      50     1.273148150E-06
    467        1      28      51     1.273148150E-06
    468        1      28      52     1.273148150E-06
    469        1      28      53     1.273148150E-06
    470        1      28      54     1.273148150E-06
    471        1      28      55     1.273148150E-06
    472        1      28      56     1.273148150E-06
    473        1      28      57     1.273148150E-06
    474        1      28      58     1.273148150E-06
    475        1      28      59     1.273148150E-06
    476        1      28      60     1.273148150E-06
    477        1      28      61     1.273148150E-06
    478        1      29      12     1.273148150E-06
    479        1      29      13     1.273148150E-06
    480        1      29      14     1.273148150E-06
    481        1      29      15     1.273148150E-06
    482        1      29      16     1.273148150E-06
    483        1      29      17     1.273148150E-06
    484        1      29      18     1.273148150E-06
    485        1      29      19     1.273148150E-06
    486        1      29      20     1.273148150E-06
    487        1      29      22     1.273148150E-06
    488        1      29      23     1.273148150E-06
    489        1      29      24     1.273148150E-06
    490        1      29      25     1.273148150E-06
    491        1      29      26     1.273148150E-06
    492        1      29      27     1.273148150E-06
    493        1      29      28     1.273148150E-06
    494        1      29      29     1.273148150E-06
    495        1      29      30     1.273148150E-06
    496        1      29      37     1.273148150E-06
    497        1      29      38     1.273148150E-06
    498        1      29      39     1.273148150E-06
    499        1      29      40     1.273148150E-06
    500        1      29      41     1.273148150E-06
    501        1      29      42     1.273148150E-06
    502        1      29      43     1.273148150E-06
    503        1      29      44     1.273148150E-06
    504        1      29      45     1.273148150E-06
    505        1      29      46     1.273148150E-06
    506        1      29      47     1.273148150E-06
    507        1      29      48     1.273148150E-06
    508        1      29      49     1.273148150E-06
    509        1      29      50     1.273148150E-06
    510        1      29      51     1.273148150E-06
    511        1      29      52     1.273148150E-06
    512        1      29      53     1.273148150E-06
    513        1      29      54     1.273148150E-06
    514        1      29      55     1.273148150E-06
    515        1      29      56     1.273148150E-06
    516        1      29      57     1.273148150E-06
    517        1      29      58     1.273148150E-06
    518        1      29      59     1.273148150E-06
    519        1      29      60     1.273148150E-06
    520        1      29      61     1.273148150E-06
    521        1      29      62     1.273148150E-06
    522        1      29      63     1.273148150E-06
    523        1      29      64     1.273148150E-06
    524        1      29      65     1.273148150E-06
    525        1      29      66     1.273148150E-06
    526        1      30      12     1.273148150E-06
    527        1      30      13     1.273148150E-06
    528        1      30      14     1.273148150E-06
    529        1      30      15     1.273148150E-06
    530        1      30      17     1.273148150E-06
    531        1      30      18     1.273148150E-06
    532        1      30      19     1.273148150E-06
    533        1      30      20     1.273148150E-06
    534        1      30      24     1.273148150E-06
    535        1      30      25     1.273148150E-06
    536        1      30      26     1.273148150E-06
    537        1      30      27     1.273148150E-06
    538        1      30      28     1.273148150E-06
    539        1      30      29     1.273148150E-06
    540        1      30      30     1.273148150E-06
    541        1      30      37     1.273148150E-06
    542        1      30      38     1.273148150E-06
    543        1      30      39     1.273148150E-06
    544        1      30      40     1.273148150E-06
    545        1      30      41     1.273148150E-06
    546        1      30      42     1.273148150E-06
    547        1      30      43     1.273148150E-06
    548        1      30      44     1.273148150E-06
    549        1      30      45     1.273148150E-06
    550        1      30      46     1.273148150E-06
    551        1      30      47     1.273148150E-06
    552        1      30      48     1.273148150E-06
    553        1      30      49     1.273148150E-06
    554        1      30      50     1.273148150E-06
    555        1      30      51     1.273148150E-06
    556        1      30      52     1.273148150E-06
    557        1      30      53     1.273148150E-06
    558        1      30      54     1.273148150E-06
    559        1      30      55     1.273148150E-06
    560        1      30      56     1.273148150E-06
    561        1      30      57     1.273148150E-06
    562        1      30      58     1.273148150E-06
    563        1      30      59     1.273148150E-06
    564        1      30      60     1.273148150E-06
    565        1      30      61     1.273148150E-06
    566        1      30      62     1.273148150E-06
    567        1      30      63     1.273148150E-06
    568        1      30      64     1.273148150E-06
    569        1      30      65     1.273148150E-06
    570        1      30      66     1.273148150E-06
    571        1      30      67     1.273148150E-06
    572        1      31      11     1.273148150E-06
    573        1      31      12     1.273148150E-06
    574        1      31      13     1.273148150E-06
    575        1      31      14     1.273148150E-06
    576        1      31      15     1.273148150E-06
    577        1      31      18     1.273148150E-06
    578        1      31      19     1.273148150E-06
    579        1      31      20     1.273148150E-06
    580        1      31      24     1.273148150E-06
    581        1      31      25     1.273148150E-06
    582        1      31      26     1.273148150E-06
    583        1      31      27     1.273148150E-06
    584        1      31      28     1.273148150E-06
    585        1      31      29     1.273148150E-06
    586        1      31      30     1.273148150E-06
    587        1      31      31     1.273148150E-06
    588        1      31      37     1.273148150E-06
    589        1      31      38     1.273148150E-06
    590        1      31      39     1.273148150E-06
    591        1      31      40     1.273148150E-06
    592        1      31      41     1.273148150E-06
    593        1      31      42     1.273148150E-06
    594        1      31      43     1.273148150E-06
    595        1      31      44     1.273148150E-06
    596        1      31      45     1.273148150E-06
    597        1      31      46     1.273148150E-06
    598        1      31      47     1.273148150E-06
    599        1      31      48     1.273148150E-06
    600        1      31      49     1.273148150E-06
    601        1      31      50     1.273148150E-06
    602        1      31      51     1.273148150E-06
    603        1      31      52     1.273148150E-06
    604        1      31      53     1.273148150E-06
    605        1      31      54     1.273148150E-06
    606        1      31      55     1.273148150E-06
    607        1      31      56     1.273148150E-06
    608        1      31      57     1.273148150E-06
    609        1      31      58     1.273148150E-06
    610        1      31      59     1.273148150E-06
    611        1      31      60     1.273148150E-06
    612        1      31      61     1.273148150E-06
    613        1      31      62     1.273148150E-06
    614        1      31      63     1.273148150E-06
    615        1      31      64     1.273148150E-06
    616        1      31      65     1.273148150E-06
    617        1      31      66     1.273148150E-06
    618        1      31      67     1.273148150E-06
    619        1      32      11     1.273148150E-06
    620        1      32      12     1.273148150E-06
    621        1      32      13     1.273148150E-06
    622        1      32      14     1.273148150E-06
    623        1      32      15     1.273148150E-06
    624        1      32      16     1.273148150E-06
    625        1      32      18     1.273148150E-06
    626        1      32      19     1.273148150E-06
    627        1      32      20     1.273148150E-06
    628        1      32      21     1.273148150E-06
    629        1      32      24     1.273148150E-06
    630        1      32      25     1.273148150E-06
    631        1      32      26     1.273148150E-06
    632        1      32      27     1.273148150E-06
    633        1      32      28     1.273148150E-06
    634        1      32      29     1.273148150E-06
    635        1      32      30     1.273148150E-06
    636        1      32      31     1.273148150E-06
    637        1      32      32     1.273148150E-06
    638        1      32      37     1.273148150E-06
    639        1      32      38     1.273148150E-06
    640        1      32      39     1.273148150E-06
    641        1      32      40     1.273148150E-06
    642        1      32      41     1.273148150E-06
    643        1      32      42     1.273148150E-06
    644        1      32      43     1.273148150E-06
    645        1      32      44     1.273148150E-06
    646        1      32      45     1.273148150E-06
    647        1      32      46     1.273148150E-06
    648        1      32      47     1.273148150E-06
    649        1      32      48     1.273148150E-06
    650        1      32      49     1.273148150E-06
    651        1      32      50     1.273148150E-06
    652        1      32      51     1.273148150E-06
    653        1      32      52     1.273148150E-06
    654        1      32      53     1.273148150E-06
    655        1      32      54     1.273148150E-06
    656        1      32      55     1.273148150E-06
    657        1      32      56     1.273148150E-06
    658        1      32      57     1.273148150E-06
    659        1      32      58     1.273148150E-06
    660        1      32      59     1.273148150E-06
    661        1      32      60     1.273148150E-06
    662        1      32      61     1.273148150E-06
    663        1      32      62     1.273148150E-06
    664        1      32      63     1.273148150E-06
    665        1      32      64     1.273148150E-06
    666        1      32      65     1.273148150E-06
    667        1      32      66     1.273148150E-06
    668        1      32      67     1.273148150E-06
    669        1      32      68     1.273148150E-06
    670        1      33      11     1.273148150E-06
    671        1      33      12     1.273148150E-06
    672        1      33      13     1.273148150E-06
    673        1      33      14     1.273148150E-06
    674        1      33      15     1.273148150E-06
    675        1      33      16     1.273148150E-06
    676        1      33      17     1.273148150E-06
    677        1      33      18     1.273148150E-06
    678        1      33      19     1.273148150E-06
    679        1      33      20     1.273148150E-06
    680        1      33      24     1.273148150E-06
    681        1      33      25     1.273148150E-06
    682        1      33      26     1.273148150E-06
    683        1      33      27     1.273148150E-06
    684        1      33      28     1.273148150E-06
    685        1      33      29     1.273148150E-06
    686        1      33      30     1.273148150E-06
    687        1      33      31     1.273148150E-06
    688        1      33      32     1.273148150E-06
    689        1      33      37     1.273148150E-06
    690        1      33      38     1.273148150E-06
    691        1      33      39     1.273148150E-06
    692        1      33      40     1.273148150E-06
    693        1      33      41     1.273148150E-06
    694        1      33      42     1.273148150E-06
    695        1      33      43     1.273148150E-06
    696        1      33      44     1.273148150E-06
    697        1      33      45     1.273148150E-06
    698        1      33      46     1.273148150E-06
    699        1      33      47     1.273148150E-06
    700        1      33      48     1.273148150E-06
    701        1      33      49     1.273148150E-06
    702        1      33      50     1.273148150E-06
    703        1      33      51     1.273148150E-06
    704        1      33      52     1.273148150E-06
    705        1      33      53     1.273148150E-06
    706        1      33      54     1.273148150E-06
    707        1      33      55     1.273148150E-06
    708        1      33      56     1.273148150E-06
    709        1      33      57     1.273148150E-06
    710        1      33      58     1.273148150E-06
    711        1      33      59     1.273148150E-06
    712        1      33      60     1.273148150E-06
    713        1      33      61     1.273148150E-06
    714        1      33      62     1.273148150E-06
    715        1      33      63     1.273148150E-06
    716        1      33      64     1.273148150E-06
    717        1      33      65     1.273148150E-06
    718        1      33      66     1.273148150E-06
    719        1      33      67     1.273148150E-06
    720        1      33      68     1.273148150E-06
    721        1      33      69     1.273148150E-06
    722        1      34      11     1.273148150E-06
    723        1      34      12     1.273148150E-06
    724        1      34      13     1.273148150E-06
    725        1      34      14     1.273148150E-06
    726        1      34      15     1.273148150E-06
    727        1      34      16     1.273148150E-06
    728        1      34      17     1.273148150E-06
    729        1      34      18     1.273148150E-06
    730        1      34      19     1.273148150E-06
    731        1      34      20     1.273148150E-06
    732        1      34      23     1.273148150E-06
    733        1      34      24     1.273148150E-06
    734        1      34      25     1.273148150E-06
    735        1      34      26     1.273148150E-06
    736        1      34      27     1.273148150E-06
    737        1      34      28     1.273148150E-06
    738        1      34      29     1.273148150E-06
    739        1      34      30     1.273148150E-06
    740        1      34      31     1.273148150E-06
    741        1      34      39     1.273148150E-06
    742        1      34      40     1.273148150E-06
    743        1      34      41     1.273148150E-06
    744        1      34      42     1.273148150E-06
    745        1      34      43     1.273148150E-06
    746        1      34      44     1.273148150E-06
    747        1      34      45     1.273148150E-06
    748        1      34      46     1.273148150E-06
    749        1      34      47     1.273148150E-06
    750        1      34      48     1.273148150E-06
    751        1      34      49     1.273148150E-06
    752        1      34      50     1.273148150E-06
    753        1      34      51     1.273148150E-06
    754        1      34      52     1.273148150E-06
    755        1      34      53     1.273148150E-06
    756        1      34      54     1.273148150E-06
    757        1      34      55     1.273148150E-06
    758        1      34      56     1.273148150E-06
    759        1      34      57     1.273148150E-06
    760        1      34      58     1.273148150E-06
    761        1      34      59     1.273148150E-06
    762        1      34      60     1.273148150E-06
    763        1      34      61     1.273148150E-06
    764        1      34      62     1.273148150E-06
    765        1      34      63     1.273148150E-06
    766        1      34      64     1.273148150E-06
    767        1      34      65     1.273148150E-06
    768        1      34      66     1.273148150E-06
    769        1      34      67     1.273148150E-06
    770        1      34      68     1.273148150E-06
    771        1      34      69     1.273148150E-06
    772        1      34      70     1.273148150E-06
    773        1      35      12     1.273148150E-06
    774        1      35      13     1.273148150E-06
    775        1      35      14     1.273148150E-06
    776        1      35      15     1.273148150E-06
    777        1      35      16     1.273148150E-06
    778        1      35      17     1.273148150E-06
    779        1      35      18     1.273148150E-06
    780        1      35      19     1.273148150E-06
    781        1      35      20     1.273148150E-06
    782        1      35      23     1.273148150E-06
    783        1      35      24     1.273148150E-06
    784        1      35      25     1.273148150E-06
    785        1      35      26     1.273148150E-06
    786        1      35      27     1.273148150E-06
    787        1      35      28     1.273148150E-06
    788        1      35      29     1.273148150E-06
    789        1      35      30     1.273148150E-06
    790        1      35      31     1.273148150E-06
    791        1      35      32     1.273148150E-06
    792        1      35      39     1.273148150E-06
    793        1      35      40     1.273148150E-06
    794        1      35      41     1.273148150E-06
    795        1      35      42     1.273148150E-06
    796        1      35      43     1.273148150E-06
    797        1      35      44     1.273148150E-06
    798        1      35      45     1.273148150E-06
    799        1      35      46     1.273148150E-06
    800        1      35      47     1.273148150E-06
    801        1      35      48     1.273148150E-06
    802        1      35      49     1.273148150E-06
    803        1      35      50     1.273148150E-06
    804        1      35      51     1.273148150E-06
    805        1      35      52     1.273148150E-06
    806        1      35      53     1.273148150E-06
    807        1      35      54     1.273148150E-06
    808        1      35      55     1.273148150E-06
    809        1      35      56     1.273148150E-06
    810        1      35      57     1.273148150E-06
    811        1      35      58     1.273148150E-06
    812        1      35      59     1.273148150E-06
    813        1      35      60     1.273148150E-06
    814        1      35      61     1.273148150E-06
    815        1      35      62     1.273148150E-06
    816        1      35      63     1.273148150E-06
    817        1      35      64     1.273148150E-06
    818        1      35      65     1.273148150E-06
    819        1      35      66     1.273148150E-06
    820        1      35      67     1.273148150E-06
    821        1      35      68     1.273148150E-06
    822        1      35      69     1.273148150E-06
    823        1      35      70     1.273148150E-06
    824        1      35      71     1.273148150E-06
    825        1      36      12     1.273148150E-06
    826        1      36      13     1.273148150E-06
    827        1      36      14     1.273148150E-06
    828        1      36      15     1.273148150E-06
    829        1      36      16     1.273148150E-06
    830        1      36      17     1.273148150E-06
    831        1      36      18     1.273148150E-06
    832        1      36      22     1.273148150E-06
    833        1      36      23     1.273148150E-06
    834        1      36      24     1.273148150E-06
    835        1      36      25     1.273148150E-06
    836        1      36      26     1.273148150E-06
    837        1      36      27     1.273148150E-06
    838        1      36      28     1.273148150E-06
    839        1      36      29     1.273148150E-06
    840        1      36      30     1.273148150E-06
    841        1      36      31     1.273148150E-06
    842        1      36      32     1.273148150E-06
    843        1      36      33     1.273148150E-06
    844        1      36      39     1.273148150E-06
    845        1      36      40     1.273148150E-06
    846        1      36      41     1.273148150E-06
    847        1      36      42     1.273148150E-06
    848        1      36      43     1.273148150E-06
    849        1      36      44     1.273148150E-06
    850        1      36      45     1.273148150E-06
    851        1      36      46     1.273148150E-06
    852        1      36      47     1.273148150E-06
[...]
       2.4613E+06  2.4616E+06  2.4617E+06  2.4619E+06  2.4620E+06  2.4622E+06  2.4623E+06  2.4624E+06  2.4626E+06  2.4627E+06
       1.0000E+30  1.0000E+30  1.0000E+30  1.0000E+30  1.0000E+30
  43   1.0000E+30  1.0000E+30  1.0000E+30  1.0000E+30  1.0000E+30  2.4791E+06  2.4790E+06  2.4790E+06  2.4790E+06  2.4787E+06
       2.4784E+06  2.4780E+06  2.4776E+06  2.4773E+06  2.4770E+06  2.4765E+06  2.4760E+06  2.4754E+06  2.4750E+06  2.4744E+06
       2.4739E+06  2.4734E+06  2.4728E+06  2.4721E+06  2.4715E+06  2.4708E+06  2.4702E+06  2.4696E+06  2.4690E+06  2.4685E+06
       2.4681E+06  2.4677E+06  2.4673E+06  2.4669E+06  2.4664E+06  2.4660E+06  2.4655E+06  2.4650E+06  2.4646E+06  2.4641E+06
       2.4635E+06  2.4630E+06  2.4624E+06  2.4619E+06  2.4616E+06  2.4614E+06  2.4613E+06  2.4611E+06  2.4608E+06  2.4603E+06
       2.4600E+06  2.4598E+06  2.4596E+06  2.4596E+06  2.4597E+06  2.4598E+06  2.4600E+06  2.4601E+06  2.4603E+06  2.4606E+06
       2.4609E+06  2.4611E+06  2.4615E+06  2.4617E+06  2.4619E+06  2.4620E+06  2.4621E+06  2.4622E+06  2.4623E+06  1.0000E+30
       1.0000E+30  1.0000E+30  1.0000E+30  1.0000E+30  1.0000E+30
  44   1.0000E+30  1.0000E+30  1.0000E+30  1.0000E+30  1.0000E+30  1.0000E+30  2.4791E+06  2.4791E+06  2.4790E+06  2.4788E+06
       2.4784E+06  2.4780E+06  2.4777E+06  2.4772E+06  2.4768E+06  2.4763E+06  2.4757E+06  2.4752E+06  2.4747E+06  2.4741E+06
       2.4736E+06  2.4730E+06  2.4724E+06  2.4717E+06  2.4710E+06  2.4704E+06  2.4698E+06  2.4692E+06  2.4686E+06  2.4681E+06
       2.4677E+06  2.4674E+06  2.4670E+06  2.4666E+06  2.4662E+06  2.4657E+06  2.4652E+06  2.4648E+06  2.4643E+06  2.4638E+06
       2.4632E+06  2.4627E+06  2.4621E+06  2.4616E+06  2.4612E+06  2.4610E+06  2.4609E+06  2.4607E+06  2.4604E+06  2.4600E+06
       2.4597E+06  2.4594E+06  2.4593E+06  2.4593E+06  2.4594E+06  2.4594E+06  2.4596E+06  2.4598E+06  2.4600E+06  2.4602E+06
       2.4605E+06  2.4609E+06  2.4612E+06  2.4615E+06  2.4617E+06  2.4618E+06  2.4619E+06  2.4620E+06  2.4621E+06  1.0000E+30
       1.0000E+30  1.0000E+30  1.0000E+30  1.0000E+30  1.0000E+30
  45   1.0000E+30  1.0000E+30  1.0000E+30  1.0000E+30  1.0000E+30  1.0000E+30  1.0000E+30  2.4790E+06  2.4790E+06  2.4786E+06
       2.4784E+06  2.4779E+06  2.4775E+06  2.4771E+06  2.4765E+06  2.4760E+06  2.4754E+06  2.4749E+06  2.4743E+06  2.4737E+06
       2.4731E+06  2.4725E+06  2.4719E+06  2.4712E+06  2.4706E+06  2.4700E+06  2.4695E+06  2.4689E+06  2.4682E+06  2.4678E+06
       2.4674E+06  2.4671E+06  2.4667E+06  2.4663E+06  2.4659E+06  2.4654E+06  2.4650E+06  2.4645E+06  2.4640E+06  2.4634E+06
       2.4629E+06  2.4623E+06  2.4617E+06  2.4612E+06  2.4608E+06  2.4606E+06  2.4604E+06  2.4603E+06  2.4600E+06  2.4596E+06
       2.4593E+06  2.4591E+06  2.4590E+06  2.4590E+06  2.4591E+06  2.4592E+06  2.4593E+06  2.4595E+06  2.4597E+06  2.4600E+06
       2.4603E+06  2.4607E+06  2.4610E+06  2.4613E+06  2.4616E+06  2.4617E+06  2.4618E+06  2.4619E+06  2.4620E+06  1.0000E+30
       1.0000E+30  1.0000E+30  1.0000E+30  1.0000E+30  1.0000E+30
  46   1.0000E+30  1.0000E+30  1.0000E+30  1.0000E+30  1.0000E+30  1.0000E+30  1.0000E+30  1.0000E+30  1.0000E+30  2.4785E+06
       2.4782E+06  2.4779E+06  2.4774E+06  2.4768E+06  2.4763E+06  2.4757E+06  2.4750E+06  2.4745E+06  2.4739E+06  2.4732E+06
       2.4727E+06  2.4721E+06  2.4715E+06  2.4709E+06  2.4703E+06  2.4697E+06  2.4692E+06  2.4686E+06  2.4680E+06  2.4675E+06
       2.4672E+06  2.4669E+06  2.4665E+06  2.4661E+06  2.4656E+06  2.4651E+06  2.4647E+06  2.4642E+06  2.4636E+06  2.4630E+06
       2.4625E+06  2.4619E+06  2.4613E+06  2.4608E+06  2.4604E+06  2.4602E+06  2.4600E+06  2.4599E+06  2.4596E+06  2.4594E+06
       2.4591E+06  2.4589E+06  2.4588E+06  2.4588E+06  2.4588E+06  2.4589E+06  2.4590E+06  2.4592E+06  2.4594E+06  2.4598E+06
       2.4602E+06  2.4605E+06  2.4609E+06  2.4612E+06  2.4615E+06  2.4616E+06  2.4617E+06  2.4617E+06  1.0000E+30  1.0000E+30
       1.0000E+30  1.0000E+30  1.0000E+30  1.0000E+30  1.0000E+30
  47   1.0000E+30  1.0000E+30  1.0000E+30  1.0000E+30  1.0000E+30  1.0000E+30  1.0000E+30  1.0000E+30  1.0000E+30  2.4782E+06
       2.4781E+06  2.4777E+06  2.4772E+06  2.4766E+06  2.4760E+06  2.4753E+06  2.4747E+06  2.4740E+06  2.4734E+06  2.4728E+06
       2.4723E+06  2.4718E+06  2.4712E+06  2.4706E+06  2.4700E+06  2.4694E+06  2.4689E+06  2.4683E+06  2.4678E+06  2.4674E+06
       2.4671E+06  2.4667E+06  2.4663E+06  2.4659E+06  2.4654E+06  2.4649E+06  2.4644E+06  2.4638E+06  2.4632E+06  2.4627E+06
       2.4621E+06  2.4616E+06  2.4610E+06  2.4605E+06  2.4601E+06  2.4599E+06  2.4598E+06  2.4596E+06  2.4594E+06  2.4591E+06
       2.4589E+06  2.4587E+06  2.4586E+06  2.4586E+06  2.4586E+06  2.4586E+06  2.4587E+06  2.4590E+06  2.4593E+06  2.4597E+06
       2.4600E+06  2.4604E+06  2.4608E+06  2.4611E+06  2.4614E+06  2.4615E+06  2.4616E+06  2.4617E+06  1.0000E+30  1.0000E+30
       1.0000E+30  1.0000E+30  1.0000E+30  1.0000E+30  1.0000E+30
  48   1.0000E+30  1.0000E+30  1.0000E+30  1.0000E+30  1.0000E+30  1.0000E+30  1.0000E+30  1.0000E+30  1.0000E+30  1.0000E+30
       1.0000E+30  2.4774E+06  2.4771E+06  2.4765E+06  2.4756E+06  2.4749E+06  2.4742E+06  2.4735E+06  2.4730E+06  2.4724E+06
       2.4720E+06  2.4715E+06  2.4709E+06  2.4703E+06  2.4698E+06  2.4692E+06  2.4686E+06  2.4680E+06  2.4676E+06  2.4672E+06
       2.4669E+06  2.4665E+06  2.4661E+06  2.4656E+06  2.4651E+06  2.4646E+06  2.4641E+06  2.4635E+06  2.4629E+06  2.4623E+06
       2.4618E+06  2.4612E+06  2.4607E+06  2.4602E+06  2.4599E+06  2.4597E+06  2.4595E+06  2.4594E+06  2.4591E+06  2.4589E+06
       2.4587E+06  2.4585E+06  2.4585E+06  2.4584E+06  2.4584E+06  2.4584E+06  2.4585E+06  2.4588E+06  2.4591E+06  2.4595E+06
       2.4599E+06  2.4603E+06  2.4607E+06  2.4611E+06  2.4613E+06  2.4616E+06  2.4617E+06  2.4618E+06  1.0000E+30  1.0000E+30
       1.0000E+30  1.0000E+30  1.0000E+30  1.0000E+30  1.0000E+30
  49   1.0000E+30  1.0000E+30  1.0000E+30  1.0000E+30  1.0000E+30  1.0000E+30  1.0000E+30  1.0000E+30  1.0000E+30  1.0000E+30
       1.0000E+30  1.0000E+30  1.0000E+30  1.0000E+30  2.4750E+06  2.4743E+06  2.4737E+06  2.4732E+06  2.4727E+06  2.4722E+06
       2.4717E+06  2.4712E+06  2.4707E+06  2.4702E+06  2.4696E+06  2.4690E+06  2.4684E+06  2.4678E+06  2.4673E+06  2.4670E+06
       2.4667E+06  2.4663E+06  2.4659E+06  2.4655E+06  2.4649E+06  2.4645E+06  2.4639E+06  2.4633E+06  2.4627E+06  2.4621E+06
       2.4615E+06  2.4610E+06  2.4604E+06  2.4600E+06  2.4596E+06  2.4594E+06  2.4593E+06  2.4590E+06  2.4588E+06  2.4585E+06
       2.4583E+06  2.4582E+06  2.4582E+06  2.4582E+06  2.4582E+06  2.4583E+06  2.4584E+06  2.4587E+06  2.4590E+06  2.4594E+06
       2.4599E+06  2.4603E+06  2.4607E+06  2.4611E+06  2.4614E+06  2.4616E+06  2.4619E+06  2.4621E+06  2.4623E+06  1.0000E+30
       1.0000E+30  1.0000E+30  1.0000E+30  1.0000E+30  1.0000E+30
  50   1.0000E+30  1.0000E+30  1.0000E+30  1.0000E+30  1.0000E+30  1.0000E+30  1.0000E+30  1.0000E+30  1.0000E+30  1.0000E+30
       1.0000E+30  1.0000E+30  1.0000E+30  1.0000E+30  1.0000E+30  2.4736E+06  2.4733E+06  2.4728E+06  2.4724E+06  2.4720E+06
       2.4715E+06  2.4710E+06  2.4705E+06  2.4701E+06  2.4695E+06  2.4688E+06  2.4681E+06  2.4675E+06  2.4671E+06  2.4667E+06
       2.4664E+06  2.4661E+06  2.4657E+06  2.4652E+06  2.4648E+06  2.4643E+06  2.4638E+06  2.4631E+06  2.4625E+06  2.4619E+06
       2.4613E+06  2.4607E+06  2.4602E+06  2.4598E+06  2.4594E+06  2.4591E+06  2.4589E+06  2.4586E+06  2.4584E+06  2.4582E+06
       2.4580E+06  2.4580E+06  2.4580E+06  2.4581E+06  2.4582E+06  2.4583E+06  2.4584E+06  2.4587E+06  2.4590E+06  2.4594E+06
       2.4599E+06  2.4603E+06  2.4607E+06  2.4611E+06  2.4614E+06  2.4617E+06  2.4620E+06  2.4623E+06  2.4625E+06  2.4627E+06
       1.0000E+30  1.0000E+30  1.0000E+30  1.0000E+30  1.0000E+30
  51   1.0000E+30  1.0000E+30  1.0000E+30  1.0000E+30  1.0000E+30  1.0000E+30  1.0000E+30  1.0000E+30  1.0000E+30  1.0000E+30
       1.0000E+30  1.0000E+30  1.0000E+30  1.0000E+30  1.0000E+30  2.4733E+06  2.4729E+06  2.4726E+06  2.4722E+06  2.4717E+06
       2.4712E+06  2.4708E+06  2.4704E+06  2.4699E+06  2.4693E+06  2.4686E+06  2.4680E+06  2.4674E+06  2.4669E+06  2.4665E+06
       2.4662E+06  2.4659E+06  2.4655E+06  2.4650E+06  2.4645E+06  2.4640E+06  2.4635E+06  2.4629E+06  2.4623E+06  2.4617E+06
       2.4611E+06  2.4605E+06  2.4600E+06  2.4596E+06  2.4592E+06  2.4589E+06  2.4586E+06  2.4583E+06  2.4581E+06  2.4579E+06
       2.4578E+06  2.4578E+06  2.4578E+06  2.4580E+06  2.4581E+06  2.4582E+06  2.4584E+06  2.4586E+06  2.4589E+06  2.4594E+06
       2.4598E+06  2.4603E+06  2.4607E+06  2.4611E+06  2.4614E+06  2.4618E+06  2.4621E+06  2.4624E+06  2.4626E+06  2.4630E+06
       2.4631E+06  1.0000E+30  1.0000E+30  1.0000E+30  1.0000E+30
  52   1.0000E+30  1.0000E+30  1.0000E+30  1.0000E+30  1.0000E+30  1.0000E+30  1.0000E+30  1.0000E+30  1.0000E+30  1.0000E+30
       1.0000E+30  1.0000E+30  1.0000E+30  1.0000E+30  1.0000E+30  1.0000E+30  2.4726E+06  2.4723E+06  2.4720E+06  2.4715E+06
       2.4710E+06  2.4706E+06  2.4702E+06  2.4697E+06  2.4691E+06  2.4685E+06  2.4679E+06  2.4672E+06  2.4667E+06  2.4663E+06
       2.4660E+06  2.4657E+06  2.4652E+06  2.4647E+06  2.4642E+06  2.4638E+06  2.4632E+06  2.4627E+06  2.4621E+06  2.4615E+06
       2.4609E+06  2.4604E+06  2.4599E+06  2.4595E+06  2.4590E+06  2.4587E+06  2.4583E+06  2.4581E+06  2.4579E+06  2.4577E+06
       2.4575E+06  2.4575E+06  2.4577E+06  2.4578E+06  2.4579E+06  2.4581E+06  2.4582E+06  2.4585E+06  2.4588E+06  2.4593E+06
       2.4598E+06  2.4602E+06  2.4607E+06  2.4611E+06  2.4614E+06  2.4618E+06  2.4621E+06  2.4624E+06  2.4627E+06  2.4630E+06
       2.4632E+06  2.4633E+06  1.0000E+30  1.0000E+30  1.0000E+30
  53   1.0000E+30  1.0000E+30  1.0000E+30  1.0000E+30  1.0000E+30  1.0000E+30  1.0000E+30  1.0000E+30  1.0000E+30  1.0000E+30
       1.0000E+30  1.0000E+30  1.0000E+30  1.0000E+30  1.0000E+30  1.0000E+30  1.0000E+30  2.4721E+06  2.4717E+06  2.4713E+06
       2.4708E+06  2.4703E+06  2.4699E+06  2.4695E+06  2.4689E+06  2.4683E+06  2.4677E+06  2.4671E+06  2.4665E+06  2.4661E+06
       2.4658E+06  2.4654E+06  2.4650E+06  2.4645E+06  2.4640E+06  2.4636E+06  2.4631E+06  2.4626E+06  2.4621E+06  2.4615E+06
       2.4609E+06  2.4603E+06  2.4597E+06  2.4592E+06  2.4587E+06  2.4584E+06  2.4581E+06  2.4579E+06  2.4577E+06  2.4575E+06
       2.4574E+06  2.4574E+06  2.4575E+06  2.4576E+06  2.4577E+06  2.4579E+06  2.4581E+06  2.4584E+06  2.4588E+06  2.4592E+06
       2.4596E+06  2.4601E+06  2.4606E+06  2.4610E+06  2.4615E+06  2.4618E+06  2.4622E+06  2.4624E+06  2.4627E+06  2.4630E+06
       2.4632E+06  2.4634E+06  2.4635E+06  1.0000E+30  1.0000E+30
  54   1.0000E+30  1.0000E+30  1.0000E+30  1.0000E+30  1.0000E+30  1.0000E+30  1.0000E+30  1.0000E+30  1.0000E+30  1.0000E+30
       1.0000E+30  1.0000E+30  1.0000E+30  1.0000E+30  1.0000E+30  1.0000E+30  1.0000E+30  1.0000E+30  2.4716E+06  2.4712E+06
       2.4707E+06  2.4700E+06  2.4696E+06  2.4691E+06  2.4686E+06  2.4681E+06  2.4675E+06  2.4669E+06  2.4663E+06  2.4658E+06
       2.4655E+06  2.4651E+06  2.4647E+06  2.4643E+06  2.4638E+06  2.4635E+06  2.4630E+06  2.4625E+06  2.4620E+06  2.4614E+06
       2.4607E+06  2.4601E+06  2.4595E+06  2.4589E+06  2.4584E+06  2.4581E+06  2.4579E+06  2.4577E+06  2.4575E+06  2.4573E+06
       2.4572E+06  2.4572E+06  2.4573E+06  2.4574E+06  2.4575E+06  2.4578E+06  2.4581E+06  2.4584E+06  2.4587E+06  2.4591E+06
       2.4595E+06  2.4600E+06  2.4605E+06  2.4610E+06  2.4614E+06  2.4617E+06  2.4621E+06  2.4624E+06  2.4627E+06  2.4630E+06
       2.4633E+06  2.4634E+06  2.4635E+06  2.4638E+06  2.4637E+06
  55   1.0000E+30  1.0000E+30  1.0000E+30  1.0000E+30  1.0000E+30  1.0000E+30  1.0000E+30  1.0000E+30  1.0000E+30  1.0000E+30
       1.0000E+30  1.0000E+30  1.0000E+30  1.0000E+30  1.0000E+30  1.0000E+30  1.0000E+30  1.0000E+30  1.0000E+30  1.0000E+30
       1.0000E+30  2.4696E+06  2.4693E+06  2.4687E+06  2.4683E+06  2.4678E+06  2.4672E+06  2.4666E+06  2.4661E+06  2.4656E+06
       2.4653E+06  2.4649E+06  2.4645E+06  2.4641E+06  2.4637E+06  2.4634E+06  2.4629E+06  2.4624E+06  2.4618E+06  2.4611E+06
       2.4605E+06  2.4598E+06  2.4592E+06  2.4586E+06  2.4581E+06  2.4578E+06  2.4577E+06  2.4575E+06  2.4573E+06  2.4572E+06
       2.4571E+06  2.4571E+06  2.4572E+06  2.4572E+06  2.4574E+06  2.4576E+06  2.4580E+06  2.4584E+06  2.4587E+06  2.4591E+06
       2.4595E+06  2.4599E+06  2.4604E+06  2.4609E+06  2.4612E+06  2.4616E+06  2.4620E+06  2.4623E+06  2.4627E+06  2.4631E+06
       2.4632E+06  2.4635E+06  2.4636E+06  2.4637E+06  1.0000E+30
  56   1.0000E+30  1.0000E+30  1.0000E+30  1.0000E+30  1.0000E+30  1.0000E+30  1.0000E+30  1.0000E+30  1.0000E+30  1.0000E+30
       1.0000E+30  1.0000E+30  1.0000E+30  1.0000E+30  1.0000E+30  1.0000E+30  1.0000E+30  1.0000E+30  1.0000E+30  1.0000E+30
       1.0000E+30  2.4692E+06  2.4690E+06  2.4685E+06  2.4680E+06  2.4675E+06  2.4670E+06  2.4664E+06  2.4659E+06  2.4655E+06
       2.4651E+06  2.4647E+06  2.4644E+06  2.4640E+06  2.4637E+06  2.4633E+06  2.4628E+06  2.4622E+06  2.4616E+06  2.4609E+06
       2.4603E+06  2.4596E+06  2.4590E+06  2.4584E+06  2.4579E+06  2.4576E+06  2.4575E+06  2.4573E+06  2.4572E+06  2.4571E+06
       2.4571E+06  2.4571E+06  2.4570E+06  2.4570E+06  2.4572E+06  2.4575E+06  2.4579E+06  2.4583E+06  2.4587E+06  2.4590E+06
       2.4594E+06  2.4598E+06  2.4604E+06  2.4608E+06  2.4612E+06  2.4616E+06  2.4619E+06  2.4622E+06  1.0000E+30  1.0000E+30
       1.0000E+30  1.0000E+30  1.0000E+30  1.0000E+30  1.0000E+30
  57   1.0000E+30  1.0000E+30  1.0000E+30  1.0000E+30  1.0000E+30  1.0000E+30  1.0000E+30  1.0000E+30  1.0000E+30  1.0000E+30
       1.0000E+30  1.0000E+30  1.0000E+30  1.0000E+30  1.0000E+30  1.0000E+30  1.0000E+30  1.0000E+30  1.0000E+30  1.0000E+30
       1.0000E+30  1.0000E+30  1.0000E+30  2.4681E+06  2.4679E+06  2.4674E+06  2.4668E+06  2.4663E+06  2.4658E+06  2.4653E+06
       2.4649E+06  2.4646E+06  2.4643E+06  2.4640E+06  2.4637E+06  2.4632E+06  2.4627E+06  2.4621E+06  2.4614E+06  2.4608E+06
       2.4601E+06  2.4594E+06  2.4588E+06  2.4582E+06  2.4578E+06  2.4575E+06  2.4573E+06  2.4571E+06  2.4570E+06  2.4570E+06
       2.4571E+06  2.4570E+06  2.4570E+06  2.4569E+06  2.4571E+06  2.4574E+06  2.4579E+06  2.4583E+06  2.4587E+06  2.4590E+06
       2.4593E+06  2.4595E+06  1.0000E+30  1.0000E+30  1.0000E+30  1.0000E+30  1.0000E+30  1.0000E+30  1.0000E+30  1.0000E+30
       1.0000E+30  1.0000E+30  1.0000E+30  1.0000E+30  1.0000E+30
  58   1.0000E+30  1.0000E+30  1.0000E+30  1.0000E+30  1.0000E+30  1.0000E+30  1.0000E+30  1.0000E+30  1.0000E+30  1.0000E+30
       1.0000E+30  1.0000E+30  1.0000E+30  1.0000E+30  1.0000E+30  1.0000E+30  1.0000E+30  1.0000E+30  1.0000E+30  1.0000E+30
       1.0000E+30  1.0000E+30  1.0000E+30  1.0000E+30  1.0000E+30  1.0000E+30  2.4665E+06  2.4662E+06  2.4656E+06  2.4651E+06
       2.4647E+06  2.4645E+06  2.4643E+06  2.4640E+06  2.4637E+06  2.4632E+06  2.4627E+06  2.4620E+06  2.4613E+06  2.4607E+06
       2.4600E+06  2.4594E+06  2.4587E+06  2.4582E+06  2.4577E+06  2.4573E+06  2.4571E+06  2.4570E+06  2.4569E+06  2.4570E+06
       2.4570E+06  2.4570E+06  2.4569E+06  2.4570E+06  2.4570E+06  2.4572E+06  1.0000E+30  1.0000E+30  1.0000E+30  1.0000E+30
       1.0000E+30  1.0000E+30  1.0000E+30  1.0000E+30  1.0000E+30  1.0000E+30  1.0000E+30  1.0000E+30  1.0000E+30  1.0000E+30
       1.0000E+30  1.0000E+30  1.0000E+30  1.0000E+30  1.0000E+30
  59   1.0000E+30  1.0000E+30  1.0000E+30  1.0000E+30  1.0000E+30  1.0000E+30  1.0000E+30  1.0000E+30  1.0000E+30  1.0000E+30
       1.0000E+30  1.0000E+30  1.0000E+30  1.0000E+30  1.0000E+30  1.0000E+30  1.0000E+30  1.0000E+30  1.0000E+30  1.0000E+30
       1.0000E+30  1.0000E+30  1.0000E+30  1.0000E+30  1.0000E+30  1.0000E+30  1.0000E+30  1.0000E+30  2.4653E+06  2.4649E+06
       2.4647E+06  2.4645E+06  2.4644E+06  2.4641E+06  2.4638E+06  2.4633E+06  2.4627E+06  2.4621E+06  2.4613E+06  2.4606E+06
       2.4600E+06  2.4594E+06  2.4588E+06  2.4582E+06  2.4577E+06  2.4573E+06  2.4571E+06  2.4570E+06  2.4569E+06  2.4569E+06
       1.0000E+30  1.0000E+30  1.0000E+30  1.0000E+30  1.0000E+30  1.0000E+30  1.0000E+30  1.0000E+30  1.0000E+30  1.0000E+30
       1.0000E+30  1.0000E+30  1.0000E+30  1.0000E+30  1.0000E+30  1.0000E+30  1.0000E+30  1.0000E+30  1.0000E+30  1.0000E+30
       1.0000E+30  1.0000E+30  1.0000E+30  1.0000E+30  1.0000E+30
  60   1.0000E+30  1.0000E+30  1.0000E+30  1.0000E+30  1.0000E+30  1.0000E+30  1.0000E+30  1.0000E+30  1.0000E+30  1.0000E+30
       1.0000E+30  1.0000E+30  1.0000E+30  1.0000E+30  1.0000E+30  1.0000E+30  1.0000E+30  1.0000E+30  1.0000E+30  1.0000E+30
       1.0000E+30  1.0000E+30  1.0000E+30  1.0000E+30  1.0000E+30  1.0000E+30  1.0000E+30  1.0000E+30  1.0000E+30  2.4648E+06
       2.4647E+06  2.4646E+06  2.4644E+06  2.4642E+06  2.4639E+06  2.4634E+06  2.4629E+06  2.4621E+06  2.4614E+06  2.4606E+06
       2.4600E+06  2.4594E+06  2.4589E+06  2.4585E+06  1.0000E+30  1.0000E+30  1.0000E+30  1.0000E+30  1.0000E+30  1.0000E+30
       1.0000E+30  1.0000E+30  1.0000E+30  1.0000E+30  1.0000E+30  1.0000E+30  1.0000E+30  1.0000E+30  1.0000E+30  1.0000E+30
       1.0000E+30  1.0000E+30  1.0000E+30  1.0000E+30  1.0000E+30  1.0000E+30  1.0000E+30  1.0000E+30  1.0000E+30  1.0000E+30
       1.0000E+30  1.0000E+30  1.0000E+30  1.0000E+30  1.0000E+30
  61   1.0000E+30  1.0000E+30  1.0000E+30  1.0000E+30  1.0000E+30  1.0000E+30  1.0000E+30  1.0000E+30  1.0000E+30  1.0000E+30
       1.0000E+30  1.0000E+30  1.0000E+30  1.0000E+30  1.0000E+30  1.0000E+30  1.0000E+30  1.0000E+30  1.0000E+30  1.0000E+30
       1.0000E+30  1.0000E+30  1.0000E+30  1.0000E+30  1.0000E+30  1.0000E+30  1.0000E+30  1.0000E+30  1.0000E+30  2.4648E+06
       2.4647E+06  2.4646E+06  2.4645E+06  2.4643E+06  2.4639E+06  2.4635E+06  2.4632E+06  1.0000E+30  1.0000E+30  1.0000E+30
       1.0000E+30  1.0000E+30  1.0000E+30  1.0000E+30  1.0000E+30  1.0000E+30  1.0000E+30  1.0000E+30  1.0000E+30  1.0000E+30
       1.0000E+30  1.0000E+30  1.0000E+30  1.0000E+30  1.0000E+30  1.0000E+30  1.0000E+30  1.0000E+30  1.0000E+30  1.0000E+30
       1.0000E+30  1.0000E+30  1.0000E+30  1.0000E+30  1.0000E+30  1.0000E+30  1.0000E+30  1.0000E+30  1.0000E+30  1.0000E+30
       1.0000E+30  1.0000E+30  1.0000E+30  1.0000E+30  1.0000E+30

 HEAD WILL BE SAVED ON UNIT 1013 AT END OF TIME STEP    1, STRESS PERIOD    1


  VOLUME BUDGET FOR ENTIRE MODEL AT END OF TIME STEP    1, STRESS PERIOD   1
  ---------------------------------------------------------------------------------------------------

     CUMULATIVE VOLUME      L**3       RATES FOR THIS TIME STEP      L**3/T          PACKAGE NAME    
     ------------------                 ------------------------                     ----------------

           IN:                                      IN:
           ---                                      ---
                 RCH =           6.5408                   RCH =           6.5408     RCH             

            TOTAL IN =           6.5408              TOTAL IN =           6.5408

          OUT:                                     OUT:
          ----                                     ----
                 RCH =           0.0000                   RCH =           0.0000     RCH             

           TOTAL OUT =           0.0000             TOTAL OUT =           0.0000

            IN - OUT =           6.5408              IN - OUT =           6.5408

 PERCENT DISCREPANCY =         200.00     PERCENT DISCREPANCY =         200.00




         TIME SUMMARY AT END OF TIME STEP    1 IN STRESS PERIOD    1
                    SECONDS     MINUTES      HOURS       DAYS        YEARS
                    -----------------------------------------------------------
   TIME STEP LENGTH  1.0000     1.66667E-02 2.77778E-04 1.15741E-05 3.16881E-08
 STRESS PERIOD TIME  1.0000     1.66667E-02 2.77778E-04 1.15741E-05 3.16881E-08
         TOTAL TIME  1.0000     1.66667E-02 2.77778E-04 1.15741E-05 3.16881E-08


end timestep

