                                   MODFLOW 6
                U.S. GEOLOGICAL SURVEY MODULAR HYDROLOGIC MODEL
                          GROUNDWATER FLOW MODEL (GWF)
                            VERSION 6.2.0 10/22/2020

   MODFLOW 6 compiled Oct 22 2020 09:26:42 with IFORT compiler (ver. 19.10.2)

This software has been approved for release by the U.S. Geological 
Survey (USGS). Although the software has been subjected to rigorous 
review, the USGS reserves the right to update the software as needed 
pursuant to further analysis and review. No warranty, expressed or 
implied, is made by the USGS or the U.S. Government as to the 
functionality of the software and related material nor shall the 
fact of release constitute any such warranty. Furthermore, the 
software is released on condition that neither the USGS nor the U.S. 
Government shall be held liable for any damages resulting from its 
authorized or unauthorized use. Also refer to the USGS Water 
Resources Software User Rights Notice for complete use, copyright, 
and distribution information.


System command used to initiate simulation:
C:\WRDAPP\mf6.2.0\bin\mf6

MODFLOW was compiled using uniform precision.

Real Variables
  KIND: 8
  TINY (smallest non-zero value):    2.225074-308
  HUGE (largest value):    1.797693+308
  PRECISION: 15
  BIT SIZE: 64

Integer Variables
  KIND: 4
  HUGE (largest value): 2147483647
  BIT SIZE: 32

Long Integer Variables
  KIND: 8
  HUGE (largest value): 9223372036854775807
  BIT SIZE: 64

Logical Variables
  KIND: 4
  BIT SIZE: 32
 

 OPENED modelo_Norte.dis
 FILE TYPE:DIS6                   UNIT 1005   STATUS:OLD                 
 FORMAT:FORMATTED              ACCESS:SEQUENTIAL          
 ACTION:READ                


 OPENED modelo_Norte.rch
 FILE TYPE:RCH6                   UNIT 1006   STATUS:OLD                 
 FORMAT:FORMATTED              ACCESS:SEQUENTIAL          
 ACTION:READ                


 OPENED modelo_Norte.ic
 FILE TYPE:IC6                    UNIT 1007   STATUS:OLD                 
 FORMAT:FORMATTED              ACCESS:SEQUENTIAL          
 ACTION:READ                


 OPENED modelo_Norte.npf
 FILE TYPE:NPF6                   UNIT 1008   STATUS:OLD                 
 FORMAT:FORMATTED              ACCESS:SEQUENTIAL          
 ACTION:READ                


 OPENED modelo_Norte.oc
 FILE TYPE:OC6                    UNIT 1009   STATUS:OLD                 
 FORMAT:FORMATTED              ACCESS:SEQUENTIAL          
 ACTION:READ                


 DIS -- STRUCTURED GRID DISCRETIZATION PACKAGE, VERSION 2 : 3/27/2014 - INPUT READ FROM UNIT 1005


 # File generated by Flopy version 3.3.2 on 02/07/2021 at 14:54:10.
 PROCESSING DISCRETIZATION OPTIONS
    XORIGIN SPECIFIED AS     1102385.12000000    
    YORIGIN SPECIFIED AS     1281362.22000000    
 END OF DISCRETIZATION OPTIONS
 MODEL LENGTH UNIT IS UNDEFINED
 PROCESSING DISCRETIZATION DIMENSIONS
    NLAY =      20
    NROW =      66
    NCOL =      92
 END OF DISCRETIZATION DIMENSIONS
 PROCESSING GRIDDATA

   MODEL LAYER BOTTOM EL. =   975.0000     FOR LAYER 1

   MODEL LAYER BOTTOM EL. =   950.0000     FOR LAYER 2

   MODEL LAYER BOTTOM EL. =   925.0000     FOR LAYER 3

   MODEL LAYER BOTTOM EL. =   900.0000     FOR LAYER 4

   MODEL LAYER BOTTOM EL. =   875.0000     FOR LAYER 5

   MODEL LAYER BOTTOM EL. =   850.0000     FOR LAYER 6

   MODEL LAYER BOTTOM EL. =   825.0000     FOR LAYER 7

   MODEL LAYER BOTTOM EL. =   800.0000     FOR LAYER 8

   MODEL LAYER BOTTOM EL. =   775.0000     FOR LAYER 9

   MODEL LAYER BOTTOM EL. =   750.0000     FOR LAYER 10

   MODEL LAYER BOTTOM EL. =   725.0000     FOR LAYER 11

   MODEL LAYER BOTTOM EL. =   700.0000     FOR LAYER 12

   MODEL LAYER BOTTOM EL. =   675.0000     FOR LAYER 13

   MODEL LAYER BOTTOM EL. =   650.0000     FOR LAYER 14

   MODEL LAYER BOTTOM EL. =   625.0000     FOR LAYER 15

   MODEL LAYER BOTTOM EL. =   600.0000     FOR LAYER 16

   MODEL LAYER BOTTOM EL. =   575.0000     FOR LAYER 17

   MODEL LAYER BOTTOM EL. =   550.0000     FOR LAYER 18

   MODEL LAYER BOTTOM EL. =   525.0000     FOR LAYER 19

   MODEL LAYER BOTTOM EL. =   500.0000     FOR LAYER 20
 END PROCESSING GRIDDATA
