                                   MODFLOW 6
                U.S. GEOLOGICAL SURVEY MODULAR HYDROLOGIC MODEL
                          GROUNDWATER FLOW MODEL (GWF)
                            VERSION 6.2.0 10/22/2020

   MODFLOW 6 compiled Oct 22 2020 09:26:42 with IFORT compiler (ver. 19.10.2)

This software has been approved for release by the U.S. Geological 
Survey (USGS). Although the software has been subjected to rigorous 
review, the USGS reserves the right to update the software as needed 
pursuant to further analysis and review. No warranty, expressed or 
implied, is made by the USGS or the U.S. Government as to the 
functionality of the software and related material nor shall the 
fact of release constitute any such warranty. Furthermore, the 
software is released on condition that neither the USGS nor the U.S. 
Government shall be held liable for any damages resulting from its 
authorized or unauthorized use. Also refer to the USGS Water 
Resources Software User Rights Notice for complete use, copyright, 
and distribution information.


System command used to initiate simulation:
C:\WRDAPP\mf6.2.0\bin\mf6

MODFLOW was compiled using uniform precision.

Real Variables
  KIND: 8
  TINY (smallest non-zero value):    2.225074-308
  HUGE (largest value):    1.797693+308
  PRECISION: 15
  BIT SIZE: 64

Integer Variables
  KIND: 4
  HUGE (largest value): 2147483647
  BIT SIZE: 32

Long Integer Variables
  KIND: 8
  HUGE (largest value): 9223372036854775807
  BIT SIZE: 64

Logical Variables
  KIND: 4
  BIT SIZE: 32
 

 OPENED modelo_Norte.dis
 FILE TYPE:DIS6                   UNIT 1005   STATUS:OLD                 
 FORMAT:FORMATTED              ACCESS:SEQUENTIAL          
 ACTION:READ                


 OPENED modelo_Norte.rch
 FILE TYPE:RCH6                   UNIT 1006   STATUS:OLD                 
 FORMAT:FORMATTED              ACCESS:SEQUENTIAL          
 ACTION:READ                


 OPENED modelo_Norte.drn
 FILE TYPE:DRN6                   UNIT 1007   STATUS:OLD                 
 FORMAT:FORMATTED              ACCESS:SEQUENTIAL          
 ACTION:READ                


 OPENED modelo_Norte.chd
 FILE TYPE:CHD6                   UNIT 1008   STATUS:OLD                 
 FORMAT:FORMATTED              ACCESS:SEQUENTIAL          
 ACTION:READ                


 OPENED modelo_Norte.ic
 FILE TYPE:IC6                    UNIT 1009   STATUS:OLD                 
 FORMAT:FORMATTED              ACCESS:SEQUENTIAL          
 ACTION:READ                


 OPENED modelo_Norte.npf
 FILE TYPE:NPF6                   UNIT 1010   STATUS:OLD                 
 FORMAT:FORMATTED              ACCESS:SEQUENTIAL          
 ACTION:READ                


 OPENED modelo_Norte.oc
 FILE TYPE:OC6                    UNIT 1011   STATUS:OLD                 
 FORMAT:FORMATTED              ACCESS:SEQUENTIAL          
 ACTION:READ                


 DIS -- STRUCTURED GRID DISCRETIZATION PACKAGE, VERSION 2 : 3/27/2014 - INPUT READ FROM UNIT 1005


 # File generated by Flopy version 3.3.2 on 02/17/2021 at 10:18:37.
 PROCESSING DISCRETIZATION OPTIONS
    XORIGIN SPECIFIED AS     1102385.12000000    
    YORIGIN SPECIFIED AS     1281362.22000000    
 END OF DISCRETIZATION OPTIONS
 MODEL LENGTH UNIT IS UNDEFINED
 PROCESSING DISCRETIZATION DIMENSIONS
    NLAY =      20
    NROW =      61
    NCOL =      75
 END OF DISCRETIZATION DIMENSIONS
 PROCESSING GRIDDATA
 END PROCESSING GRIDDATA

 THE SPECIFIED IDOMAIN RESULTS IN A REDUCED NUMBER OF CELLS.
 NUMBER OF USER NODES: 91500
 NUMBER OF NODES IN SOLUTION: 51140



 NPF -- NODE PROPERTY FLOW PACKAGE, VERSION 1, 3/30/2015 INPUT READ FROM UNIT 1010


 # File generated by Flopy version 3.3.2 on 02/17/2021 at 10:18:38.
 PROCESSING NPF OPTIONS
    CELL-BY-CELL FLOW INFORMATION WILL BE SAVED TO BINARY FILE WHENEVER ICBCFL IS NOT ZERO.
 END OF NPF OPTIONS

 DRN   -- DRN PACKAGE, VERSION 8, 2/22/2014 INPUT READ FROM UNIT 1007
 # File generated by Flopy version 3.3.2 on 02/17/2021 at 10:18:38.

 PROCESSING DRN OPTIONS
    LISTS OF DRN CELLS WILL BE PRINTED.
    DRN FLOWS WILL BE PRINTED TO LISTING FILE.
    FLOWS WILL BE SAVED TO BUDGET FILE SPECIFIED IN OUTPUT CONTROL
 END OF DRN OPTIONS

 PROCESSING DRN DIMENSIONS
    MAXBOUND =     514
 END OF DRN DIMENSIONS

 RCH   -- RCH PACKAGE, VERSION 8, 2/22/2014 INPUT READ FROM UNIT 1006
 # File generated by Flopy version 3.3.2 on 02/17/2021 at 10:18:38.

 PROCESSING RCH OPTIONS
    LISTS OF RCH CELLS WILL BE PRINTED.
    RCH FLOWS WILL BE PRINTED TO LISTING FILE.
    FLOWS WILL BE SAVED TO BUDGET FILE SPECIFIED IN OUTPUT CONTROL
 END OF RCH OPTIONS

 PROCESSING RCH DIMENSIONS
    MAXBOUND =    2055
 END OF RCH DIMENSIONS

 CHD   -- CHD PACKAGE, VERSION 8, 2/22/2014 INPUT READ FROM UNIT 1008
 # File generated by Flopy version 3.3.2 on 02/17/2021 at 10:18:38.

 PROCESSING CHD OPTIONS
    LISTS OF CHD CELLS WILL BE PRINTED.
    CHD FLOWS WILL BE PRINTED TO LISTING FILE.
    FLOWS WILL BE SAVED TO BUDGET FILE SPECIFIED IN OUTPUT CONTROL
 END OF CHD OPTIONS

 PROCESSING CHD DIMENSIONS
    MAXBOUND =     272
 END OF CHD DIMENSIONS

 IC -- INITIAL CONDITIONS PACKAGE, VERSION 8, 3/28/2015 INPUT READ FROM UNIT 1009
 # File generated by Flopy version 3.3.2 on 02/17/2021 at 10:18:38.
 PROCESSING GRIDDATA
 END PROCESSING GRIDDATA
 PROCESSING GRIDDATA

                ICELLTYPE = 1

                        K =  0.1000000E-05
 K33 not provided.  Assuming K33 = K.
 K22 not provided.  Assuming K22 = K.
 END PROCESSING GRIDDATA

 CELL CONVERSIONS FOR ITER.=0  STEP=0  PERIOD=0   (NODE or LRC)
     DRY           (1,36,24) DRY           (1,37,22) DRY           (1,37,23) DRY           (1,37,24) DRY           (1,37,25)
     DRY           (1,38,21) DRY           (1,38,22) DRY           (1,38,23) DRY           (1,38,24) DRY           (1,38,25)
     DRY           (1,38,29) DRY           (1,39,20) DRY           (1,39,21) DRY           (1,39,22) DRY           (1,39,23)
     DRY           (1,39,24) DRY           (1,39,25) DRY           (1,39,26) DRY           (1,39,28) DRY           (1,40,19)
     DRY           (1,40,20) DRY           (1,40,21) DRY           (1,40,22) DRY           (1,40,23) DRY           (1,40,24)
     DRY           (1,40,25) DRY           (1,40,26) DRY           (1,40,27) DRY           (1,40,28) DRY           (1,41,16)
     DRY           (1,41,17) DRY           (1,41,18) DRY           (1,41,19) DRY           (1,41,20) DRY           (1,41,21)
     DRY           (1,41,22) DRY           (1,41,23) DRY           (1,41,24) DRY           (1,41,25) DRY           (1,41,26)
     DRY           (1,41,27) DRY           (1,41,28) DRY           (1,42,16) DRY           (1,42,17) DRY           (1,42,18)
     DRY           (1,42,19) DRY           (1,42,20) DRY           (1,42,21) DRY           (1,42,22) DRY           (1,42,23)
     DRY           (1,42,25) DRY           (1,42,26) DRY           (1,42,27) DRY           (1,42,28) DRY           (1,42,29)
     DRY           (1,43,15) DRY           (1,43,23) DRY           (1,43,24) DRY           (1,43,25) DRY           (1,43,26)
     DRY           (1,43,27) DRY           (1,43,28) DRY           (1,43,29) DRY           (1,43,30) DRY           (1,43,31)
     DRY           (1,44,21) DRY           (1,44,22) DRY           (1,44,23) DRY           (1,44,24) DRY           (1,44,25)
     DRY           (1,44,26) DRY           (1,44,27) DRY           (1,44,28) DRY           (1,44,29) DRY           (1,44,30)
     DRY           (1,44,31) DRY           (1,44,32) DRY           (1,45,20) DRY           (1,45,21) DRY           (1,45,22)
     DRY           (1,45,23) DRY           (1,45,24) DRY           (1,45,25) DRY           (1,45,26) DRY           (1,45,27)
     DRY           (1,45,28) DRY           (1,45,29) DRY           (1,45,30) DRY           (1,45,31) DRY           (1,45,32)
     DRY           (1,46,20) DRY           (1,46,21) DRY           (1,46,22) DRY           (1,46,23) DRY           (1,46,24)
     DRY           (1,46,25) DRY           (1,46,26) DRY           (1,46,27) DRY           (1,46,28) DRY           (1,46,29)
     DRY           (1,46,30) DRY           (1,46,31) DRY           (1,46,32) DRY           (1,46,33) DRY           (1,47,19)
     DRY           (1,47,20) DRY           (1,47,21) DRY           (1,47,22) DRY           (1,47,23) DRY           (1,47,24)
     DRY           (1,47,25) DRY           (1,47,26) DRY           (1,47,27) DRY           (1,47,28) DRY           (1,47,29)
     DRY           (1,47,30) DRY           (1,47,31) DRY           (1,47,32) DRY           (1,47,33) DRY           (1,48,17)
     DRY           (1,48,18) DRY           (1,48,19) DRY           (1,48,20) DRY           (1,48,21) DRY           (1,48,22)
     DRY           (1,48,23) DRY           (1,48,24) DRY           (1,48,25) DRY           (1,48,26) DRY           (1,48,27)
     DRY           (1,48,28) DRY           (1,48,29) DRY           (1,48,30) DRY           (1,48,31) DRY           (1,48,32)
     DRY           (1,48,33) DRY           (1,48,34) DRY           (1,49,18) DRY           (1,49,19) DRY           (1,49,20)
     DRY           (1,49,21) DRY           (1,49,22) DRY           (1,49,23) DRY           (1,49,24) DRY           (1,49,25)
     DRY           (1,49,26) DRY           (1,49,27) DRY           (1,49,28) DRY           (1,49,29) DRY           (1,49,30)
     DRY           (1,49,31) DRY           (1,49,32) DRY           (1,49,33) DRY           (1,49,34) DRY           (1,50,20)
     DRY           (1,50,21) DRY           (1,50,22) DRY           (1,50,23) DRY           (1,50,24) DRY           (1,50,25)
     DRY           (1,50,26) DRY           (1,50,27) DRY           (1,50,28) DRY           (1,50,29) DRY           (1,50,30)
     DRY           (1,50,31) DRY           (1,50,32) DRY           (1,50,33) DRY           (1,50,34) DRY           (1,50,35)
     DRY           (1,50,36) DRY           (1,51,18) DRY           (1,51,19) DRY           (1,51,20) DRY           (1,51,21)
     DRY           (1,51,22) DRY           (1,51,23) DRY           (1,51,24) DRY           (1,51,25) DRY           (1,51,26)
     DRY           (1,51,27) DRY           (1,51,28) DRY           (1,51,29) DRY           (1,51,30) DRY           (1,51,31)
     DRY           (1,51,32) DRY           (1,51,33) DRY           (1,51,34) DRY           (1,51,35) DRY           (1,51,36)
     DRY           (1,51,37) DRY           (1,52,18) DRY           (1,52,19) DRY           (1,52,20) DRY           (1,52,21)
     DRY           (1,52,22) DRY           (1,52,23) DRY           (1,52,24) DRY           (1,52,25) DRY           (1,52,26)
     DRY           (1,52,27) DRY           (1,52,28) DRY           (1,52,29) DRY           (1,52,30) DRY           (1,52,31)
     DRY           (1,52,32) DRY           (1,52,33) DRY           (1,52,34) DRY           (1,52,35) DRY           (1,52,36)
     DRY           (1,52,37) DRY           (1,52,38) DRY           (1,52,71) DRY           (1,52,72) DRY           (1,53,19)
     DRY           (1,53,20) DRY           (1,53,21) DRY           (1,53,22) DRY           (1,53,23) DRY           (1,53,24)
     DRY           (1,53,25) DRY           (1,53,26) DRY           (1,53,27) DRY           (1,53,28) DRY           (1,53,29)
     DRY           (1,53,30) DRY           (1,53,31) DRY           (1,53,32) DRY           (1,53,33) DRY           (1,53,34)
     DRY           (1,53,35) DRY           (1,53,36) DRY           (1,53,37) DRY           (1,53,38) DRY           (1,53,69)
     DRY           (1,53,70) DRY           (1,53,71) DRY           (1,53,72) DRY           (1,54,19) DRY           (1,54,20)
     DRY           (1,54,21) DRY           (1,54,22) DRY           (1,54,23) DRY           (1,54,24) DRY           (1,54,25)
     DRY           (1,54,26) DRY           (1,54,27) DRY           (1,54,28) DRY           (1,54,29) DRY           (1,54,30)
     DRY           (1,54,31) DRY           (1,54,32) DRY           (1,54,33) DRY           (1,54,34) DRY           (1,54,35)
     DRY           (1,54,36) DRY           (1,54,37) DRY           (1,54,38) DRY           (1,54,39) DRY           (1,54,50)
     DRY           (1,54,51) DRY           (1,54,64) DRY           (1,54,65) DRY           (1,54,66) DRY           (1,54,67)
     DRY           (1,54,68) DRY           (1,54,69) DRY           (1,54,70) DRY           (1,54,71) DRY           (1,54,72)
     DRY           (1,55,22) DRY           (1,55,23) DRY           (1,55,24) DRY           (1,55,25) DRY           (1,55,26)
     DRY           (1,55,27) DRY           (1,55,28) DRY           (1,55,29) DRY           (1,55,30) DRY           (1,55,31)
     DRY           (1,55,32) DRY           (1,55,33) DRY           (1,55,34) DRY           (1,55,35) DRY           (1,55,36)
     DRY           (1,55,37) DRY           (1,55,38) DRY           (1,55,39) DRY           (1,55,40) DRY           (1,55,41)
     DRY           (1,55,42) DRY           (1,55,43) DRY           (1,55,44) DRY           (1,55,45) DRY           (1,55,46)
     DRY           (1,55,47) DRY           (1,55,48) DRY           (1,55,49) DRY           (1,55,50) DRY           (1,55,51)
     DRY           (1,55,52) DRY           (1,55,53) DRY           (1,55,63) DRY           (1,55,64) DRY           (1,55,65)
     DRY           (1,55,66) DRY           (1,55,67) DRY           (1,55,68) DRY           (1,55,69) DRY           (1,55,70)
     DRY           (1,55,71) DRY           (1,55,72) DRY           (1,55,73) DRY           (1,56,22) DRY           (1,56,23)
     DRY           (1,56,24) DRY           (1,56,25) DRY           (1,56,26) DRY           (1,56,27) DRY           (1,56,28)
     DRY           (1,56,29) DRY           (1,56,30) DRY           (1,56,31) DRY           (1,56,32) DRY           (1,56,33)
     DRY           (1,56,34) DRY           (1,56,35) DRY           (1,56,36) DRY           (1,56,37) DRY           (1,56,38)
     DRY           (1,56,39) DRY           (1,56,40) DRY           (1,56,41) DRY           (1,56,42) DRY           (1,56,43)
     DRY           (1,56,44) DRY           (1,56,45) DRY           (1,56,46) DRY           (1,56,47) DRY           (1,56,48)
     DRY           (1,56,49) DRY           (1,56,50) DRY           (1,56,51) DRY           (1,56,52) DRY           (1,56,53)
     DRY           (1,56,54) DRY           (1,56,55) DRY           (1,56,56) DRY           (1,56,60) DRY           (1,56,61)
     DRY           (1,56,62) DRY           (1,56,63) DRY           (1,56,64) DRY           (1,56,65) DRY           (1,56,66)
     DRY           (1,56,67) DRY           (1,56,68) DRY           (1,57,24) DRY           (1,57,25) DRY           (1,57,26)
     DRY           (1,57,27) DRY           (1,57,28) DRY           (1,57,29) DRY           (1,57,30) DRY           (1,57,31)
     DRY           (1,57,32) DRY           (1,57,33) DRY           (1,57,34) DRY           (1,57,35) DRY           (1,57,36)
     DRY           (1,57,37) DRY           (1,57,38) DRY           (1,57,39) DRY           (1,57,40) DRY           (1,57,41)
     DRY           (1,57,42) DRY           (1,57,43) DRY           (1,57,44) DRY           (1,57,45) DRY           (1,57,46)
     DRY           (1,57,47) DRY           (1,57,48) DRY           (1,57,49) DRY           (1,57,50) DRY           (1,57,51)
     DRY           (1,57,52) DRY           (1,57,53) DRY           (1,57,54) DRY           (1,57,55) DRY           (1,57,56)
     DRY           (1,57,57) DRY           (1,57,58) DRY           (1,57,59) DRY           (1,57,60) DRY           (1,57,61)
     DRY           (1,57,62) DRY           (1,58,27) DRY           (1,58,28) DRY           (1,58,29) DRY           (1,58,30)
     DRY           (1,58,31) DRY           (1,58,32) DRY           (1,58,33) DRY           (1,58,34) DRY           (1,58,35)
     DRY           (1,58,36) DRY           (1,58,37) DRY           (1,58,38) DRY           (1,58,39) DRY           (1,58,40)
     DRY           (1,58,41) DRY           (1,58,42) DRY           (1,58,43) DRY           (1,58,44) DRY           (1,58,45)
     DRY           (1,58,46) DRY           (1,58,47) DRY           (1,58,48) DRY           (1,58,49) DRY           (1,58,50)
     DRY           (1,58,51) DRY           (1,58,52) DRY           (1,58,53) DRY           (1,58,54) DRY           (1,58,55)
     DRY           (1,58,56) DRY           (1,59,29) DRY           (1,59,30) DRY           (1,59,31) DRY           (1,59,32)
     DRY           (1,59,33) DRY           (1,59,34) DRY           (1,59,35) DRY           (1,59,36) DRY           (1,59,37)
     DRY           (1,59,38) DRY           (1,59,39) DRY           (1,59,40) DRY           (1,59,41) DRY           (1,59,42)
     DRY           (1,59,43) DRY           (1,59,44) DRY           (1,59,45) DRY           (1,59,46) DRY           (1,59,47)
     DRY           (1,59,48) DRY           (1,59,49) DRY           (1,59,50) DRY           (1,60,30) DRY           (1,60,31)
     DRY           (1,60,32) DRY           (1,60,33) DRY           (1,60,34) DRY           (1,60,35) DRY           (1,60,36)
     DRY           (1,60,37) DRY           (1,60,38) DRY           (1,60,39) DRY           (1,60,40) DRY           (1,60,41)
     DRY           (1,60,42) DRY           (1,60,43) DRY           (1,60,44) DRY           (1,61,30) DRY           (1,61,31)
     DRY           (1,61,32) DRY           (1,61,33) DRY           (1,61,34) DRY           (1,61,35) DRY           (1,61,36)
     DRY           (1,61,37) DRY           (2,39,22) DRY           (2,40,20) DRY           (2,40,21) DRY           (2,40,22)
     DRY           (2,41,21) DRY           (2,43,28) DRY           (2,44,25) DRY           (2,44,26) DRY           (2,44,27)
     DRY           (2,44,28) DRY           (2,44,29) DRY           (2,45,21) DRY           (2,45,23) DRY           (2,45,24)
     DRY           (2,45,25) DRY           (2,45,26) DRY           (2,45,27) DRY           (2,45,28) DRY           (2,45,29)
     DRY           (2,45,30) DRY           (2,45,31) DRY           (2,46,21) DRY           (2,46,22) DRY           (2,46,23)
     DRY           (2,46,24) DRY           (2,46,25) DRY           (2,46,26) DRY           (2,46,27) DRY           (2,46,28)
     DRY           (2,46,29) DRY           (2,46,30) DRY           (2,46,31) DRY           (2,46,32) DRY           (2,47,20)
     DRY           (2,47,21) DRY           (2,47,22) DRY           (2,47,23) DRY           (2,47,24) DRY           (2,47,25)
     DRY           (2,47,26) DRY           (2,47,27) DRY           (2,47,28) DRY           (2,47,29) DRY           (2,47,30)
     DRY           (2,47,31) DRY           (2,47,32) DRY           (2,48,19) DRY           (2,48,20) DRY           (2,48,21)
     DRY           (2,48,22) DRY           (2,48,23) DRY           (2,48,24) DRY           (2,48,25) DRY           (2,48,26)
     DRY           (2,48,27) DRY           (2,48,28) DRY           (2,48,29) DRY           (2,48,30) DRY           (2,48,31)
     DRY           (2,48,32) DRY           (2,48,33) DRY           (2,49,21) DRY           (2,49,22) DRY           (2,49,23)
     DRY           (2,49,24) DRY           (2,49,25) DRY           (2,49,26) DRY           (2,49,27) DRY           (2,49,28)
     DRY           (2,49,29) DRY           (2,49,30) DRY           (2,49,31) DRY           (2,49,32) DRY           (2,49,33)
     DRY           (2,50,21) DRY           (2,50,22) DRY           (2,50,23) DRY           (2,50,24) DRY           (2,50,25)
     DRY           (2,50,26) DRY           (2,50,27) DRY           (2,50,28) DRY           (2,50,29) DRY           (2,50,30)
     DRY           (2,50,31) DRY           (2,50,32) DRY           (2,50,33) DRY           (2,50,34) DRY           (2,51,18)
     DRY           (2,51,20) DRY           (2,51,22) DRY           (2,51,23) DRY           (2,51,24) DRY           (2,51,25)
     DRY           (2,51,26) DRY           (2,51,27) DRY           (2,51,28) DRY           (2,51,29) DRY           (2,51,30)
     DRY           (2,51,31) DRY           (2,51,32) DRY           (2,51,33) DRY           (2,51,34) DRY           (2,51,35)
     DRY           (2,52,19) DRY           (2,52,20) DRY           (2,52,21) DRY           (2,52,22) DRY           (2,52,23)
     DRY           (2,52,24) DRY           (2,52,25) DRY           (2,52,26) DRY           (2,52,27) DRY           (2,52,28)
     DRY           (2,52,29) DRY           (2,52,30) DRY           (2,52,31) DRY           (2,52,32) DRY           (2,52,33)
     DRY           (2,52,34) DRY           (2,52,35) DRY           (2,52,36) DRY           (2,53,20) DRY           (2,53,21)
     DRY           (2,53,22) DRY           (2,53,23) DRY           (2,53,24) DRY           (2,53,25) DRY           (2,53,26)
     DRY           (2,53,27) DRY           (2,53,28) DRY           (2,53,29) DRY           (2,53,30) DRY           (2,53,31)
     DRY           (2,53,32) DRY           (2,53,33) DRY           (2,53,34) DRY           (2,53,35) DRY           (2,53,36)
     DRY           (2,53,37) DRY           (2,53,71) DRY           (2,54,23) DRY           (2,54,24) DRY           (2,54,25)
     DRY           (2,54,26) DRY           (2,54,27) DRY           (2,54,28) DRY           (2,54,29) DRY           (2,54,30)
     DRY           (2,54,31) DRY           (2,54,32) DRY           (2,54,33) DRY           (2,54,34) DRY           (2,54,35)
     DRY           (2,54,36) DRY           (2,54,37) DRY           (2,54,38) DRY           (2,54,69) DRY           (2,54,70)
     DRY           (2,54,71) DRY           (2,54,72) DRY           (2,55,23) DRY           (2,55,24) DRY           (2,55,25)
     DRY           (2,55,26) DRY           (2,55,27) DRY           (2,55,28) DRY           (2,55,29) DRY           (2,55,30)
     DRY           (2,55,31) DRY           (2,55,32) DRY           (2,55,33) DRY           (2,55,34) DRY           (2,55,35)
     DRY           (2,55,36) DRY           (2,55,37) DRY           (2,55,38) DRY           (2,55,67) DRY           (2,55,68)
     DRY           (2,55,69) DRY           (2,55,70) DRY           (2,55,71) DRY           (2,55,72) DRY           (2,56,22)
     DRY           (2,56,23) DRY           (2,56,24) DRY           (2,56,25) DRY           (2,56,26) DRY           (2,56,27)
     DRY           (2,56,28) DRY           (2,56,29) DRY           (2,56,30) DRY           (2,56,31) DRY           (2,56,32)
     DRY           (2,56,33) DRY           (2,56,34) DRY           (2,56,35) DRY           (2,56,36) DRY           (2,56,37)
     DRY           (2,56,38) DRY           (2,56,39) DRY           (2,56,40) DRY           (2,56,41) DRY           (2,56,42)
     DRY           (2,56,43) DRY           (2,56,44) DRY           (2,56,45) DRY           (2,56,46) DRY           (2,56,47)
     DRY           (2,56,48) DRY           (2,56,49) DRY           (2,56,50) DRY           (2,56,51) DRY           (2,56,52)
     DRY           (2,56,67) DRY           (2,56,68) DRY           (2,57,24) DRY           (2,57,25) DRY           (2,57,26)
     DRY           (2,57,27) DRY           (2,57,28) DRY           (2,57,29) DRY           (2,57,30) DRY           (2,57,31)
     DRY           (2,57,32) DRY           (2,57,33) DRY           (2,57,34) DRY           (2,57,35) DRY           (2,57,36)
     DRY           (2,57,37) DRY           (2,57,38) DRY           (2,57,39) DRY           (2,57,40) DRY           (2,57,41)
     DRY           (2,57,42) DRY           (2,57,43) DRY           (2,57,44) DRY           (2,57,45) DRY           (2,57,46)
     DRY           (2,57,47) DRY           (2,57,48) DRY           (2,57,49) DRY           (2,57,50) DRY           (2,57,51)
     DRY           (2,57,52) DRY           (2,57,53) DRY           (2,57,54) DRY           (2,57,55) DRY           (2,57,56)
     DRY           (2,57,61) DRY           (2,58,27) DRY           (2,58,28) DRY           (2,58,29) DRY           (2,58,30)
     DRY           (2,58,31) DRY           (2,58,32) DRY           (2,58,33) DRY           (2,58,34) DRY           (2,58,35)
     DRY           (2,58,36) DRY           (2,58,37) DRY           (2,58,38) DRY           (2,58,39) DRY           (2,58,40)
     DRY           (2,58,41) DRY           (2,58,42) DRY           (2,58,43) DRY           (2,58,44) DRY           (2,58,45)
     DRY           (2,58,46) DRY           (2,58,47) DRY           (2,58,48) DRY           (2,58,49) DRY           (2,58,50)
     DRY           (2,58,51) DRY           (2,58,52) DRY           (2,58,53) DRY           (2,58,54) DRY           (2,58,55)
     DRY           (2,58,56) DRY           (2,59,29) DRY           (2,59,30) DRY           (2,59,31) DRY           (2,59,32)
     DRY           (2,59,33) DRY           (2,59,34) DRY           (2,59,35) DRY           (2,59,36) DRY           (2,59,37)
     DRY           (2,59,38) DRY           (2,59,39) DRY           (2,59,40) DRY           (2,59,41) DRY           (2,59,42)
     DRY           (2,59,43) DRY           (2,59,44) DRY           (2,59,45) DRY           (2,59,46) DRY           (2,59,47)
     DRY           (2,59,48) DRY           (2,59,49) DRY           (2,59,50) DRY           (2,60,30) DRY           (2,60,31)
     DRY           (2,60,32) DRY           (2,60,33) DRY           (2,60,34) DRY           (2,60,35) DRY           (2,60,36)
     DRY           (2,60,37) DRY           (2,60,38) DRY           (2,60,39) DRY           (2,60,40) DRY           (2,60,41)
     DRY           (2,60,42) DRY           (2,60,43) DRY           (2,60,44) DRY           (2,61,30) DRY           (2,61,31)
     DRY           (2,61,32) DRY           (2,61,33) DRY           (2,61,34) DRY           (2,61,35) DRY           (2,61,36)
     DRY           (2,61,37) DRY           (3,45,25) DRY           (3,45,26) DRY           (3,45,27) DRY           (3,45,28)
     DRY           (3,45,29) DRY           (3,46,24) DRY           (3,46,25) DRY           (3,46,26) DRY           (3,46,27)
     DRY           (3,46,28) DRY           (3,46,29) DRY           (3,46,30) DRY           (3,47,22) DRY           (3,47,23)
     DRY           (3,47,24) DRY           (3,47,25) DRY           (3,47,26) DRY           (3,47,27) DRY           (3,47,28)
     DRY           (3,47,29) DRY           (3,47,30) DRY           (3,47,31) DRY           (3,47,32) DRY           (3,48,24)
     DRY           (3,48,25) DRY           (3,48,26) DRY           (3,48,27) DRY           (3,48,28) DRY           (3,48,29)
     DRY           (3,48,30) DRY           (3,48,31) DRY           (3,48,32) DRY           (3,49,23) DRY           (3,49,24)
     DRY           (3,49,25) DRY           (3,49,26) DRY           (3,49,27) DRY           (3,49,28) DRY           (3,49,29)
     DRY           (3,49,30) DRY           (3,49,31) DRY           (3,49,32) DRY           (3,49,33) DRY           (3,50,23)
     DRY           (3,50,24) DRY           (3,50,25) DRY           (3,50,26) DRY           (3,50,27) DRY           (3,50,28)
     DRY           (3,50,29) DRY           (3,50,30) DRY           (3,50,31) DRY           (3,50,32) DRY           (3,50,33)
     DRY           (3,51,24) DRY           (3,51,25) DRY           (3,51,26) DRY           (3,51,27) DRY           (3,51,28)
     DRY           (3,51,29) DRY           (3,51,30) DRY           (3,51,31) DRY           (3,51,32) DRY           (3,51,33)
     DRY           (3,52,26) DRY           (3,52,27) DRY           (3,52,28) DRY           (3,52,29) DRY           (3,52,30)
     DRY           (3,52,31) DRY           (3,52,32) DRY           (3,52,33) DRY           (3,53,22) DRY           (3,53,23)
     DRY           (3,53,24) DRY           (3,53,25) DRY           (3,53,26) DRY           (3,53,27) DRY           (3,53,28)
     DRY           (3,53,29) DRY           (3,53,30) DRY           (3,53,31) DRY           (3,53,32) DRY           (3,53,33)
     DRY           (3,54,23) DRY           (3,54,24) DRY           (3,54,25) DRY           (3,54,26) DRY           (3,54,27)
     DRY           (3,54,28) DRY           (3,54,29) DRY           (3,54,30) DRY           (3,54,31) DRY           (3,54,32)
     DRY           (3,54,33) DRY           (3,54,34) DRY           (3,55,24) DRY           (3,55,25) DRY           (3,55,26)
     DRY           (3,55,27) DRY           (3,55,28) DRY           (3,55,29) DRY           (3,55,30) DRY           (3,55,31)
     DRY           (3,55,32) DRY           (3,55,33) DRY           (3,55,34) DRY           (3,55,35) DRY           (3,55,36)
     DRY           (3,55,37) DRY           (3,55,69) DRY           (3,55,70) DRY           (3,55,71) DRY           (3,56,25)
     DRY           (3,56,26) DRY           (3,56,27) DRY           (3,56,28) DRY           (3,56,29) DRY           (3,56,30)
     DRY           (3,56,31) DRY           (3,56,32) DRY           (3,56,33) DRY           (3,56,34) DRY           (3,56,35)
     DRY           (3,56,36) DRY           (3,56,37) DRY           (3,56,38) DRY           (3,56,68) DRY           (3,57,24)
     DRY           (3,57,26) DRY           (3,57,27) DRY           (3,57,28) DRY           (3,57,29) DRY           (3,57,30)
     DRY           (3,57,31) DRY           (3,57,32) DRY           (3,57,33) DRY           (3,57,34) DRY           (3,57,35)
     DRY           (3,57,36) DRY           (3,57,37) DRY           (3,57,38) DRY           (3,57,41) DRY           (3,57,42)
     DRY           (3,57,43) DRY           (3,57,44) DRY           (3,57,45) DRY           (3,57,46) DRY           (3,57,47)
     DRY           (3,57,48) DRY           (3,57,49) DRY           (3,57,50) DRY           (3,57,51) DRY           (3,57,52)
     DRY           (3,57,53) DRY           (3,58,27) DRY           (3,58,28) DRY           (3,58,29) DRY           (3,58,30)
     DRY           (3,58,31) DRY           (3,58,32) DRY           (3,58,33) DRY           (3,58,34) DRY           (3,58,35)
     DRY           (3,58,36) DRY           (3,58,37) DRY           (3,58,38) DRY           (3,58,41) DRY           (3,58,42)
     DRY           (3,58,43) DRY           (3,58,44) DRY           (3,58,45) DRY           (3,58,46) DRY           (3,58,47)
     DRY           (3,58,48) DRY           (3,58,49) DRY           (3,58,50) DRY           (3,58,51) DRY           (3,58,52)
     DRY           (3,58,53) DRY           (3,58,54) DRY           (3,58,55) DRY           (3,58,56) DRY           (3,59,29)
     DRY           (3,59,30) DRY           (3,59,31) DRY           (3,59,32) DRY           (3,59,33) DRY           (3,59,34)
     DRY           (3,59,35) DRY           (3,59,36) DRY           (3,59,37) DRY           (3,59,38) DRY           (3,59,39)
     DRY           (3,59,41) DRY           (3,59,42) DRY           (3,59,43) DRY           (3,59,44) DRY           (3,59,45)
     DRY           (3,59,46) DRY           (3,59,47) DRY           (3,59,48) DRY           (3,59,49) DRY           (3,59,50)
     DRY           (3,60,30) DRY           (3,60,31) DRY           (3,60,32) DRY           (3,60,33) DRY           (3,60,34)
     DRY           (3,60,35) DRY           (3,60,36) DRY           (3,60,37) DRY           (3,60,38) DRY           (3,60,39)
     DRY           (3,60,41) DRY           (3,60,42) DRY           (3,60,43) DRY           (3,60,44) DRY           (3,61,30)
     DRY           (3,61,31) DRY           (3,61,32) DRY           (3,61,33) DRY           (3,61,34) DRY           (3,61,35)
     DRY           (3,61,36) DRY           (3,61,37) DRY           (4,46,26) DRY           (4,46,27) DRY           (4,46,28)
     DRY           (4,46,29) DRY           (4,47,24) DRY           (4,47,25) DRY           (4,47,26) DRY           (4,47,27)
     DRY           (4,47,28) DRY           (4,47,29) DRY           (4,47,30) DRY           (4,48,25) DRY           (4,48,26)
     DRY           (4,48,27) DRY           (4,48,28) DRY           (4,48,29) DRY           (4,48,30) DRY           (4,48,31)
     DRY           (4,48,32) DRY           (4,49,24) DRY           (4,49,25) DRY           (4,49,26) DRY           (4,49,27)
     DRY           (4,49,28) DRY           (4,49,29) DRY           (4,49,30) DRY           (4,49,31) DRY           (4,49,32)
     DRY           (4,50,24) DRY           (4,50,25) DRY           (4,50,26) DRY           (4,50,27) DRY           (4,50,28)
     DRY           (4,50,29) DRY           (4,50,31) DRY           (4,50,32) DRY           (4,51,28) DRY           (4,51,29)
     DRY           (4,51,31) DRY           (4,51,32) DRY           (4,52,28) DRY           (4,52,29) DRY           (4,52,30)
     DRY           (4,52,31) DRY           (4,52,32) DRY           (4,53,28) DRY           (4,53,29) DRY           (4,53,30)
     DRY           (4,53,31) DRY           (4,53,32) DRY           (4,54,24) DRY           (4,54,25) DRY           (4,54,26)
     DRY           (4,54,27) DRY           (4,54,28) DRY           (4,54,29) DRY           (4,54,30) DRY           (4,54,31)
     DRY           (4,54,32) DRY           (4,55,24) DRY           (4,55,25) DRY           (4,55,26) DRY           (4,55,27)
     DRY           (4,55,28) DRY           (4,55,29) DRY           (4,55,30) DRY           (4,55,31) DRY           (4,55,32)
     DRY           (4,56,26) DRY           (4,56,27) DRY           (4,56,28) DRY           (4,56,29) DRY           (4,56,30)
     DRY           (4,56,31) DRY           (4,56,32) DRY           (4,57,28) DRY           (4,57,29) DRY           (4,57,32)
     DRY           (4,58,44) DRY           (4,58,45) DRY           (4,58,46) DRY           (4,58,47) DRY           (4,58,48)
     DRY           (4,58,49) DRY           (4,58,50) DRY           (4,58,51) DRY           (4,58,52) DRY           (4,58,53)
     DRY           (4,59,44) DRY           (4,59,45) DRY           (4,59,46) DRY           (4,59,47) DRY           (4,59,48)
     DRY           (4,59,49) DRY           (4,59,50) DRY           (4,60,44) DRY           (5,46,28) DRY           (5,47,26)
     DRY           (5,47,27) DRY           (5,47,28) DRY           (5,47,29) DRY           (5,48,26) DRY           (5,48,27)
     DRY           (5,48,28) DRY           (5,48,29) DRY           (5,48,30) DRY           (5,49,26) DRY           (5,49,27)
     DRY           (5,49,28) DRY           (5,49,29) DRY           (5,49,30) DRY           (5,50,28) DRY           (5,53,29)
     DRY           (5,53,30) DRY           (5,54,30) DRY           (5,54,31) DRY           (5,55,27) DRY           (5,55,28)
     DRY           (5,55,31) DRY           (5,56,28) DRY           (5,56,29) DRY           (5,56,30) DRY           (5,56,31)
     DRY           (6,47,28) DRY           (6,48,27) DRY           (6,48,28) DRY           (6,48,29) DRY           (6,49,27)
     DRY           (6,49,28) DRY           (6,49,29)
    BINARY GRID INFORMATION WILL BE WRITTEN TO:
      UNIT NUMBER: 1013
      FILE NAME: D:\OneDrive - UNIVERSIDAD INDUSTRIAL DE SANTANDER\Maestria\06_Tesis\01_Tesis_Dev\09_Python\Main_Mod\data\modelo_Norte\modelo_Norte.dis.grb

 OPENED D:\OneDrive - UNIVERSIDAD INDUSTRIAL DE SANTANDER\Maestria\06_Tesis\01_Tesis_Dev\09_Python\Main_Mod\data\modelo_Norte\modelo_Norte.dis.grb
 FILE TYPE:DATA(BINARY)   UNIT 1013   STATUS:REPLACE             
 FORMAT:UNFORMATTED            ACCESS:STREAM              
 ACTION:READWRITE           

      THE LAST TIME STEP WILL BE PRINTED
      THE LAST TIME STEP WILL BE PRINTED
 # File generated by Flopy version 3.3.2 on 02/17/2021 at 10:18:38.

 PROCESSING OC OPTIONS

    BUDGET INFORMATION WILL BE WRITTEN TO:
      UNIT NUMBER: 1014
      FILE NAME: modelo_Norte.cbb

 OPENED modelo_Norte.cbb
 FILE TYPE:DATA(BINARY)   UNIT 1014   STATUS:REPLACE             
 FORMAT:UNFORMATTED            ACCESS:STREAM              
 ACTION:READWRITE           

    HEAD INFORMATION WILL BE WRITTEN TO:
      UNIT NUMBER: 1015
      FILE NAME: modelo_Norte.hds

 OPENED modelo_Norte.hds
 FILE TYPE:DATA(BINARY)   UNIT 1015   STATUS:REPLACE             
 FORMAT:UNFORMATTED            ACCESS:STREAM              
 ACTION:READWRITE           

 END OF OC OPTIONS

start timestep kper="1" kstp="1" mode="normal"


 BEGIN READING OUTPUT CONTROL FOR STRESS PERIOD 1
      ALL TIME STEPS WILL BE SAVED
      ALL TIME STEPS WILL BE SAVED
      THE LAST TIME STEP WILL BE PRINTED

 END READING OUTPUT CONTROL FOR STRESS PERIOD 1
 --------------------------------------------------------------------
  DRN NO.    LAYER    ROW     COL      DRAIN EL.       CONDUCTANCE   
 --------------------------------------------------------------------
     1         1      19      27     684.116211       2.500000000E-02
     2         1      37      63     778.080933       2.500000000E-02
     3         1      29      59     678.853760       2.500000000E-02
     4         1      19      36     633.000000       2.500000000E-02
     5         1      49      46     810.512939       2.500000000E-02
     6         1      22      38     672.694702       2.500000000E-02
     7         1      41      51     756.523560       2.500000000E-02
     8         1      53      25     796.507263       2.500000000E-02
     9         1      45      21     751.000000       2.500000000E-02
     10        1      42      52     761.114624       2.500000000E-02
     11        1      34      48     708.946167       2.500000000E-02
     12        1      46      13     669.724182       2.500000000E-02
     13        1      23      29     708.366211       2.500000000E-02
     14        1      33      61     762.492737       2.500000000E-02
     15        1      38      27     732.045776       2.500000000E-02
     16        1      23      38     689.000000       2.500000000E-02
     17        1      39       1     618.792969       2.500000000E-02
     18        1      50      19     724.926880       2.500000000E-02
     19        1      37      58     773.573975       2.500000000E-02
     20        1      49      23     784.132080       2.500000000E-02
     21        1      37      67     699.983032       2.500000000E-02
     22        1      29      63     656.945740       2.500000000E-02
     23        1      30      28     704.947510       2.500000000E-02
     24        1      53      20     760.810791       2.500000000E-02
     25        1      45      16     683.208496       2.500000000E-02
     26        1      30      64     675.867554       2.500000000E-02
     27        1      34      25     688.822693       2.500000000E-02
     28        1      54      21     741.992249       2.500000000E-02
     29        1      46      17     700.999512       2.500000000E-02
     30        1      26      48     650.524963       2.500000000E-02
     31        1      35      26     705.000000       2.500000000E-02
     32        1      57      26     792.385742       2.500000000E-02
     33        1      44      56     792.387878       2.500000000E-02
     34        1      52      69     893.299194       2.500000000E-02
     35        1      36      70     673.222595       2.500000000E-02
     36        1      37      53     711.593079       2.500000000E-02
     37        1      49      18     733.458496       2.500000000E-02
     38        1      29      49     659.000000       2.500000000E-02
     39        1      37      62     798.439148       2.500000000E-02
     40        1      29      58     696.842529       2.500000000E-02
     41        1      37      71     676.383850       2.500000000E-02
     42        1      41      32     782.132629       2.500000000E-02
     43        1      30      41     718.153992       2.500000000E-02
     44        1      41      41     780.882080       2.500000000E-02
     45        1      42       6     639.000000       2.500000000E-02
     46        1      30      50     674.243286       2.500000000E-02
     47        1      41      50     740.876404       2.500000000E-02
     48        1      42      24     733.000000       2.500000000E-02
     49        1      45      20     737.678894       2.500000000E-02
     50        1      46      12     668.529480       2.500000000E-02
     51        1      44      42     791.000000       2.500000000E-02
     52        1      33      51     684.596924       2.500000000E-02
     53        1      38      17     713.000000       2.500000000E-02
     54        1      23      28     697.000000       2.500000000E-02
     55        1      36      47     724.925232       2.500000000E-02
     56        1      33      60     735.000000       2.500000000E-02
     57        1      56      25     805.000000       2.500000000E-02
     58        1      36      56     726.410461       2.500000000E-02
     59        1      44      69     747.255676       2.500000000E-02
     60        1      48      48     780.400085       2.500000000E-02
     61        1      37      57     752.019104       2.500000000E-02
     62        1      49      22     775.257996       2.500000000E-02
     63        1       7      16     609.000000       2.500000000E-02
     64        1      37      66     719.838257       2.500000000E-02
     65        1      49      31     893.355774       2.500000000E-02
     66        1      51      68     868.918335       2.500000000E-02
     67        1      53      19     734.406494       2.500000000E-02
     68        1      40      49     728.556091       2.500000000E-02
     69        1      53      28     838.330933       2.500000000E-02
     70        1      40      67     719.958069       2.500000000E-02
     71        1      25      33     731.493591       2.500000000E-02
     72        1      25      42     675.281433       2.500000000E-02
     73        1      44      55     790.227234       2.500000000E-02
     74        1      52      68     891.231567       2.500000000E-02
     75        1      15      19     621.000000       2.500000000E-02
     76        1      33      64     738.743408       2.500000000E-02
     77        1      41       4     633.000000       2.500000000E-02
     78        1      37      52     711.155945       2.500000000E-02
     79        1      48      52     797.158386       2.500000000E-02
     80        1      29      48     665.000000       2.500000000E-02
     81        1      41      31     773.739197       2.500000000E-02
     82        1      22      27     691.891907       2.500000000E-02
     83        1      42       5     636.663757       2.500000000E-02
     84        1      22      36     680.443909       2.500000000E-02
     85        1      31      66     670.835876       2.500000000E-02
     86        1      45      10     653.151062       2.500000000E-02
     87        1      45      19     705.959961       2.500000000E-02
     88        1      52      18     737.116943       2.500000000E-02
     89        1      33      41     726.069092       2.500000000E-02
     90        1      44      41     801.000000       2.500000000E-02
     91        1      44      50     749.000000       2.500000000E-02
     92        1      36      46     730.323608       2.500000000E-02
     93        1      33      59     737.654968       2.500000000E-02
     94        1      56      24     776.672241       2.500000000E-02
     95        1      60      31     866.270996       2.500000000E-02
     96        1      18      25     655.011841       2.500000000E-02
     97        1      29      25     673.951660       2.500000000E-02
     98        1      18      43     643.122070       2.500000000E-02
     99        1      49      21     758.429565       2.500000000E-02
    100        1      51      40     847.469360       2.500000000E-02
    101        1      22      22     641.173706       2.500000000E-02
    102        1      51      67     879.076904       2.500000000E-02
    103        1      40      30     765.840332       2.500000000E-02
    104        1      31      61     721.322815       2.500000000E-02
    105        1      33       9     621.000000       2.500000000E-02
    106        1      52      22     758.609497       2.500000000E-02
    107        1      44      18     694.118469       2.500000000E-02
    108        1      32      62     734.998352       2.500000000E-02
    109        1      25      23     649.971436       2.500000000E-02
    110        1      54      68     935.012756       2.500000000E-02
    111        1      25      32     741.080872       2.500000000E-02
    112        1      36      41     750.831970       2.500000000E-02
    113        1      48      15     691.599121       2.500000000E-02
    114        1      18      20     630.406433       2.500000000E-02
    115        1      50      52     821.393066       2.500000000E-02
    116        1      59      30     843.389038       2.500000000E-02
    117        1      41       3     627.882996       2.500000000E-02
    118        1      39      70     693.921265       2.500000000E-02
    119        1      28      42     689.550659       2.500000000E-02
    120        1      51      53     818.288940       2.500000000E-02
    121        1      31      47     689.000000       2.500000000E-02
    122        1      21      21     636.489990       2.500000000E-02
    123        1      55      23     781.338745       2.500000000E-02
    124        1      31      65     687.107361       2.500000000E-02
    125        1      24      35     703.699646       2.500000000E-02
    126        1      52      17     711.041748       2.500000000E-02
    127        1      32      48     691.000000       2.500000000E-02
    128        1      36       9     621.994324       2.500000000E-02
    129        1      36      27     722.646057       2.500000000E-02
    130        1      35      68     686.233215       2.500000000E-02
    131        1      46      68     779.000000       2.500000000E-02
    132        1      37      10     629.705872       2.500000000E-02
    133        1      56      23     762.709351       2.500000000E-02
    134        1      47      51     780.214661       2.500000000E-02
    135        1      50      47     821.000000       2.500000000E-02
    136        1      18      24     649.079895       2.500000000E-02
    137        1      29      24     662.632263       2.500000000E-02
    138        1      51      21     737.000000       2.500000000E-02
    139        1      51      39     852.194519       2.500000000E-02
    140        1      31      51     681.281616       2.500000000E-02
    141        1      40      29     756.104492       2.500000000E-02
    142        1      21      25     665.548950       2.500000000E-02
    143        1      32      25     681.600342       2.500000000E-02
    144        1      21      43     646.273682       2.500000000E-02
    145        1      44       8     649.000000       2.500000000E-02
    146        1      52      21     767.232056       2.500000000E-02
    147        1      44      17     693.621216       2.500000000E-02
    148        1      35      54     709.000000       2.500000000E-02
    149        1      48      14     681.000000       2.500000000E-02
    150        1      38      68     695.882751       2.500000000E-02
    151        1      47      55     803.044434       2.500000000E-02
    152        1      27      49     650.017273       2.500000000E-02
    153        1      51      16     703.764465       2.500000000E-02
    154        1      59      29     820.778076       2.500000000E-02
    155        1      28      23     653.773682       2.500000000E-02
    156        1      51      25     801.743774       2.500000000E-02
    157        1      43      21     711.000000       2.500000000E-02
    158        1      31      28     704.643188       2.500000000E-02
    159        1      20      28     697.581909       2.500000000E-02
    160        1      28      50     654.564331       2.500000000E-02
    161        1      51      52     820.936096       2.500000000E-02
    162        1      20      46     643.216797       2.500000000E-02
    163        1      28      59     654.086731       2.500000000E-02
    164        1      55      22     748.641724       2.500000000E-02
    165        1      31      64     706.363770       2.500000000E-02
    166        1      21      29     706.396179       2.500000000E-02
    167        1      21      38     649.037231       2.500000000E-02
    168        1      53      70     935.832581       2.500000000E-02
    169        1      24      34     718.001038       2.500000000E-02
    170        1      42      70     721.603088       2.500000000E-02
    171        1      34      66     712.104370       2.500000000E-02
    172        1      46      49     778.716980       2.500000000E-02
    173        1      36      26     713.225769       2.500000000E-02
    174        1      17      22     636.273926       2.500000000E-02
    175        1      35      67     690.685120       2.500000000E-02
    176        1      58      32     875.803711       2.500000000E-02
    177        1      47      41     818.113770       2.500000000E-02
    178        1      43       7     644.572388       2.500000000E-02
    179        1      51      20     750.262146       2.500000000E-02
    180        1      51      29     840.270874       2.500000000E-02
    181        1      40       1     622.671814       2.500000000E-02
    182        1      49      68     828.628052       2.500000000E-02
    183        1      31      41     716.794983       2.500000000E-02
    184        1      31      50     673.019043       2.500000000E-02
    185        1      40      28     743.000000       2.500000000E-02
    186        1      42      56     778.251831       2.500000000E-02
    187        1      34      52     692.250732       2.500000000E-02
    188        1      24      29     714.852966       2.500000000E-02
    189        1      34      61     762.237732       2.500000000E-02
    190        1      44       7     641.758728       2.500000000E-02
    191        1      23      42     670.062988       2.500000000E-02
    192        1      35      53     705.271973       2.500000000E-02
    193        1      46      53     791.472961       2.500000000E-02
    194        1      38      49     732.791626       2.500000000E-02
    195        1      39      14     673.168396       2.500000000E-02
    196        1      35      62     771.173584       2.500000000E-02
    197        1      58      27     808.067444       2.500000000E-02
    198        1      16      21     625.357666       2.500000000E-02
    199        1      35      71     666.923828       2.500000000E-02
    200        1      38      67     703.346130       2.500000000E-02
    201        1      19      26     665.000000       2.500000000E-02
    202        1      39      41     767.132812       2.500000000E-02
    203        1      27      48     652.191650       2.500000000E-02
    204        1      31       9     615.976990       2.500000000E-02
    205        1      43      20     722.272644       2.500000000E-02
    206        1      31      27     690.324524       2.500000000E-02
    207        1      20      27     686.296326       2.500000000E-02
    208        1      20      36     640.707214       2.500000000E-02
    209        1      20      45     640.677063       2.500000000E-02
    210        1      42      51     761.000000       2.500000000E-02
    211        1      34      47     713.000000       2.500000000E-02
    212        1      53      69     914.050232       2.500000000E-02
    213        1      42      69     745.224304       2.500000000E-02
    214        1      34      65     736.320374       2.500000000E-02
    215        1      57      30     848.713501       2.500000000E-02
    216        1      23      37     692.519653       2.500000000E-02
    217        1      35      57     763.937866       2.500000000E-02
    218        1      38      53     729.795898       2.500000000E-02
    219        1      50      18     721.155273       2.500000000E-02
    220        1      58      31     860.944153       2.500000000E-02
    221        1      39      27     734.578186       2.500000000E-02
    222        1      19      21     636.028625       2.500000000E-02
    223        1      19      30     712.455261       2.500000000E-02
    224        1      43       6     640.083435       2.500000000E-02
    225        1      51      19     751.174133       2.500000000E-02
    226        1      43      15     737.475830       2.500000000E-02
    227        1      61      32     876.542603       2.500000000E-02
    228        1      30      63     675.268982       2.500000000E-02
    229        1      45      42     800.503235       2.500000000E-02
    230        1      42      55     773.000000       2.500000000E-02
    231        1      54      20     741.786499       2.500000000E-02
    232        1      45      51     774.710327       2.500000000E-02
    233        1       5      15     608.126221       2.500000000E-02
    234        1      46      16     690.891174       2.500000000E-02
    235        1      54      29     856.017883       2.500000000E-02
    236        1      45      60     819.817505       2.500000000E-02
    237        1      23      23     648.184021       2.500000000E-02
    238        1      57      25     779.220154       2.500000000E-02
    239        1      45      69     774.337463       2.500000000E-02
    240        1      35      52     697.835571       2.500000000E-02
    241        1      46      52     781.877380       2.500000000E-02
    242        1      39      13     674.394775       2.500000000E-02
    243        1      16      20     622.912598       2.500000000E-02
    244        1      50      31     892.910461       2.500000000E-02
    245        1      19      25     649.000000       2.500000000E-02
    246        1      37      70     675.000000       2.500000000E-02
    247        1      27      47     661.652161       2.500000000E-02
    248        1      29      66     661.000000       2.500000000E-02
    249        1      19      43     639.000000       2.500000000E-02
    250        1      49      53     813.101379       2.500000000E-02
    251        1      30      49     667.968567       2.500000000E-02
    252        1      41      49     744.671509       2.500000000E-02
    253        1      31      26     684.185120       2.500000000E-02
    254        1      20      26     671.228516       2.500000000E-02
    255        1      22      45     651.335266       2.500000000E-02
    256        1      30      58     711.971008       2.500000000E-02
    257        1      42      23     739.075439       2.500000000E-02
    258        1      41      67     744.234924       2.500000000E-02
    259        1      42      41     785.312317       2.500000000E-02
    260        1      42      50     738.426453       2.500000000E-02
    261        1      46      11     660.584106       2.500000000E-02
    262        1      26      42     681.000000       2.500000000E-02
    263        1      54      24     818.769959       2.500000000E-02
    264        1      38      16     700.201111       2.500000000E-02
    265        1      23      27     693.335632       2.500000000E-02
    266        1      33      68     665.591858       2.500000000E-02
    267        1      47      12     691.019897       2.500000000E-02
    268        1      39      17     702.919495       2.500000000E-02
    269        1      50      17     701.967041       2.500000000E-02
    270        1      19      20     635.581604       2.500000000E-02
    271        1      19      29     704.095398       2.500000000E-02
    272        1      37      65     749.925354       2.500000000E-02
    273        1      29      61     655.000000       2.500000000E-02
    274        1      19      38     633.000000       2.500000000E-02
    275        1      49      48     795.123413       2.500000000E-02
    276        1      53      18     728.904297       2.500000000E-02
    277        1      61      31     859.936401       2.500000000E-02
    278        1      45      14     690.123291       2.500000000E-02
    279        1      53      27     808.179565       2.500000000E-02
    280        1      34      41     728.657959       2.500000000E-02
    281        1      45      41     805.000000       2.500000000E-02
    282        1      54      19     750.336731       2.500000000E-02
    283        1      45      50     750.237488       2.500000000E-02
    284        1      46      15     681.000000       2.500000000E-02
    285        1      54      28     835.097351       2.500000000E-02
    286        1      38      11     639.000000       2.500000000E-02
    287        1      23      22     639.623169       2.500000000E-02
    288        1      57      24     788.200867       2.500000000E-02
    289        1      33      63     751.898071       2.500000000E-02
    290        1      39      12     667.000000       2.500000000E-02
    291        1      16      19     621.000000       2.500000000E-02
    292        1      37      51     718.679443       2.500000000E-02
    293        1      49      16     700.412170       2.500000000E-02
    294        1      37      69     683.997925       2.500000000E-02
    295        1      29      65     659.327942       2.500000000E-02
    296        1      41      30     760.367798       2.500000000E-02
    297        1      22      26     675.369934       2.500000000E-02
    298        1      49      52     800.628479       2.500000000E-02
    299        1      22      35     686.749084       2.500000000E-02
    300        1      30      48     676.300842       2.500000000E-02
    301        1      22      44     653.756958       2.500000000E-02
    302        1      45       9     647.419434       2.500000000E-02
    303        1      34       9     619.000000       2.500000000E-02
    304        1      53      22     789.000000       2.500000000E-02
    305        1      26      23     650.014282       2.500000000E-02
    306        1      40      70     699.796387       2.500000000E-02
    307        1      46      10     658.405212       2.500000000E-02
    308        1      46      19     729.259583       2.500000000E-02
    309        1      38      15     699.980469       2.500000000E-02
    310        1      23      26     681.000000       2.500000000E-02
    311        1      33      67     675.000000       2.500000000E-02
    312        1      37      28     738.095398       2.500000000E-02
    313        1      60      30     842.419189       2.500000000E-02
    314        1      29      42     703.349182       2.500000000E-02
    315        1      18      42     641.763855       2.500000000E-02
    316        1      48      55     808.863159       2.500000000E-02
    317        1      49      20     733.851746       2.500000000E-02
    318        1      37      64     769.851562       2.500000000E-02
    319        1      41      25     746.410400       2.500000000E-02
    320        1      30      25     666.983582       2.500000000E-02
    321        1      22      21     639.047546       2.500000000E-02
    322        1      49      47     797.226196       2.500000000E-02
    323        1      51      66     891.287109       2.500000000E-02
    324        1      45      13     677.898132       2.500000000E-02
    325        1      53      26     793.114380       2.500000000E-02
    326        1      32      61     729.000000       2.500000000E-02
    327        1      52      39     861.134766       2.500000000E-02
    328        1      46      14     672.799438       2.500000000E-02
    329        1      38      10     635.317810       2.500000000E-02
    330        1      52      66     917.878418       2.500000000E-02
    331        1      33      62     762.891663       2.500000000E-02
    332        1      48      23     777.550659       2.500000000E-02
    333        1      36      67     696.509338       2.500000000E-02
    334        1      37      41     755.061340       2.500000000E-02
    335        1      48      41     827.580750       2.500000000E-02
    336        1      41       2     626.088989       2.500000000E-02
    337        1      49      15     691.000000       2.500000000E-02
    338        1      49      24     811.941284       2.500000000E-02
    339        1      29      64     659.000000       2.500000000E-02
    340        1      30      29     721.252319       2.500000000E-02
    341        1      22      43     655.354248       2.500000000E-02
    342        1      45       8     652.228271       2.500000000E-02
    343        1      53      21     763.110901       2.500000000E-02
    344        1      45      17     692.833496       2.500000000E-02
    345        1      52      25     780.869141       2.500000000E-02
    346        1      32      65     712.744263       2.500000000E-02
    347        1      52      52     829.393555       2.500000000E-02
    348        1      33      48     694.233643       2.500000000E-02
    349        1      56      22     769.000000       2.500000000E-02
    350        1      36      53     699.000000       2.500000000E-02
    351        1      37      27     716.791260       2.500000000E-02
    352        1      18      23     640.884888       2.500000000E-02
    353        1      36      71     668.369202       2.500000000E-02
    354        1      47      68     794.484009       2.500000000E-02
    355        1      29      41     719.883118       2.500000000E-02
    356        1      49      19     737.709778       2.500000000E-02
    357        1      41      24     747.110413       2.500000000E-02
    358        1      22      29     708.440735       2.500000000E-02
    359        1      52      20     772.009155       2.500000000E-02
    360        1      32      51     681.749084       2.500000000E-02
    361        1      32      60     731.000000       2.500000000E-02
    362        1      33      25     681.000000       2.500000000E-02
    363        1      33      52     699.000000       2.500000000E-02
    364        1      48      13     678.877808       2.500000000E-02
    365        1      36      57     754.104614       2.500000000E-02
    366        1      48      22     772.439392       2.500000000E-02
    367        1      47      54     796.865417       2.500000000E-02
    368        1       6      16     609.000000       2.500000000E-02
    369        1      48      40     823.572388       2.500000000E-02
    370        1      50      68     844.237305       2.500000000E-02
    371        1      39      68     702.115234       2.500000000E-02
    372        1       7      17     610.864990       2.500000000E-02
    373        1      28      49     653.000000       2.500000000E-02
    374        1      43      56     785.081177       2.500000000E-02
    375        1      51      69     873.133484       2.500000000E-02
    376        1      40      32     786.573730       2.500000000E-02
    377        1      31      63     716.407166       2.500000000E-02
    378        1      21      28     695.124207       2.500000000E-02
    379        1      55      30     880.351074       2.500000000E-02
    380        1      40      41     775.289551       2.500000000E-02
    381        1      40      50     741.084778       2.500000000E-02
    382        1      24      33     741.529053       2.500000000E-02
    383        1      24      42     671.000000       2.500000000E-02
    384        1      52      24     770.660278       2.500000000E-02
    385        1      44      20     715.789734       2.500000000E-02
    386        1      32      64     727.768066       2.500000000E-02
    387        1      17      21     627.827332       2.500000000E-02
    388        1      54      70     955.018250       2.500000000E-02
    389        1      36      52     729.585449       2.500000000E-02
    390        1      38      71     687.551453       2.500000000E-02
    391        1      47      49     771.172363       2.500000000E-02
    392        1      18      22     633.917969       2.500000000E-02
    393        1      51      28     817.101196       2.500000000E-02
    394        1      41       5     635.011841       2.500000000E-02
    395        1      40      27     749.899048       2.500000000E-02
    396        1      55      25     817.854004       2.500000000E-02
    397        1      13      19     619.667358       2.500000000E-02
    398        1      43      69     744.590637       2.500000000E-02
    399        1      32      41     719.000000       2.500000000E-02
    400        1      52      19     760.945007       2.500000000E-02
    401        1      32      50     680.235779       2.500000000E-02
    402        1      44      15     724.740601       2.500000000E-02
    403        1      35      61     772.617004       2.500000000E-02
    404        1      48      12     672.831848       2.500000000E-02
    405        1      38      66     719.580261       2.500000000E-02
    406        1      50      40     839.480286       2.500000000E-02
    407        1      47      53     792.915344       2.500000000E-02
    408        1       6      15     607.106384       2.500000000E-02
    409        1      39      49     721.000000       2.500000000E-02
    410        1      51      23     771.238342       2.500000000E-02
    411        1      50      67     859.238831       2.500000000E-02
    412        1      39      67     711.011780       2.500000000E-02
    413        1      28      48     657.857849       2.500000000E-02
    414        1      32       9     617.878906       2.500000000E-02
    415        1      40      31     779.162109       2.500000000E-02
    416        1      31      62     723.835632       2.500000000E-02
    417        1      21      27     689.096924       2.500000000E-02
    418        1      55      29     859.946716       2.500000000E-02
    419        1      24      23     650.586975       2.500000000E-02
    420        1      21      36     660.017456       2.500000000E-02
    421        1      53      68     912.048889       2.500000000E-02
    422        1      21      45     645.989929       2.500000000E-02
    423        1      52      23     768.461487       2.500000000E-02
    424        1      44      19     707.992493       2.500000000E-02
    425        1      35      47     711.337097       2.500000000E-02
    426        1      35      56     740.943420       2.500000000E-02
    427        1      54      69     938.389404       2.500000000E-02
    428        1      35      65     733.248291       2.500000000E-02
    429        1      58      30     848.313110       2.500000000E-02
    430        1      38      70     692.302429       2.500000000E-02
    431        1      47      48     801.000000       2.500000000E-02
    432        1      27      42     681.000000       2.500000000E-02
    433        1      50      53     812.126526       2.500000000E-02
    434        1      51      27     799.018188       2.500000000E-02
    435        1      43      23     742.496216       2.500000000E-02
    436        1      20      21     639.000000       2.500000000E-02
    437        1      43      41     788.530457       2.500000000E-02
    438        1      31      48     687.117249       2.500000000E-02
    439        1      43      50     750.298218       2.500000000E-02
    440        1      21      22     640.162720       2.500000000E-02
    441        1      42      54     768.276428       2.500000000E-02
    442        1      24      27     705.772583       2.500000000E-02
    443        1      45      59     812.632690       2.500000000E-02
    444        1      44      14     705.963928       2.500000000E-02
    445        1      34      68     676.791992       2.500000000E-02
    446        1      45      68     776.510803       2.500000000E-02
    447        1      36      10     624.987549       2.500000000E-02
    448        1      14      19     620.096313       2.500000000E-02
    449        1      46      51     761.357056       2.500000000E-02
    450        1      50      21     750.252563       2.500000000E-02
    451        1      50      30     856.804199       2.500000000E-02
    452        1      47      52     787.044678       2.500000000E-02
    453        1      51      22     765.393921       2.500000000E-02
    454        1      31      25     667.195740       2.500000000E-02
    455        1      20      25     657.714355       2.500000000E-02
    456        1      28      47     662.252136       2.500000000E-02
    457        1      30      66     666.364624       2.500000000E-02
    458        1      41      66     756.471924       2.500000000E-02
    459        1      20      43     641.369812       2.500000000E-02
    460        1      21      26     673.303345       2.500000000E-02
    461        1      54      23     808.581970       2.500000000E-02
    462        1      34      54     710.719910       2.500000000E-02
    463        1      26      50     649.329041       2.500000000E-02
    464        1      23      35     698.358582       2.500000000E-02
    465        1      35      46     720.148865       2.500000000E-02
    466        1      47      11     672.387512       2.500000000E-02
    467        1      23      44     659.162842       2.500000000E-02
    468        1      35      55     718.377686       2.500000000E-02
    469        1      38      51     717.000000       2.500000000E-02
    470        1      50      16     697.000000       2.500000000E-02
    471        1      35      64     751.654419       2.500000000E-02
    472        1      58      29     826.338501       2.500000000E-02
    473        1      27      23     654.286316       2.500000000E-02
    474        1      19      28     696.602478       2.500000000E-02
    475        1      27      50     648.528931       2.500000000E-02
    476        1      51      17     723.559631       2.500000000E-02
    477        1      19      46     639.000000       2.500000000E-02
    478        1      28      24     663.655029       2.500000000E-02
    479        1      51      26     800.279785       2.500000000E-02
    480        1      43      22     722.861023       2.500000000E-02
    481        1      30      61     695.093750       2.500000000E-02
    482        1      20      38     637.061707       2.500000000E-02
    483        1      41      70     709.158569       2.500000000E-02
    484        1      42      53     765.685120       2.500000000E-02
    485        1      34      67     685.947937       2.500000000E-02
    486        1      38      28     735.675354       2.500000000E-02
    487        1      35      41     735.416687       2.500000000E-02
    488        1      46      41     809.496277       2.500000000E-02
    489        1      39       2     624.383118       2.500000000E-02
    490        1      46      50     761.822937       2.500000000E-02
    491        1      39      11     647.644165       2.500000000E-02
    492        1      50      20     731.612793       2.500000000E-02
    493        1      58      33     912.676697       2.500000000E-02
    494        1      50      29     852.864990       2.500000000E-02
    495        1      48      68     807.289185       2.500000000E-02
    496        1      37      68     691.297668       2.500000000E-02
    497        1      30      47     681.000000       2.500000000E-02
    498        1      40       2     625.315002       2.500000000E-02
    499        1      30      65     668.260437       2.500000000E-02
    500        1      41      65     774.234070       2.500000000E-02
    501        1      34      26     697.749390       2.500000000E-02
    502        1      35       9     620.314941       2.500000000E-02
    503        1      54      22     748.504517       2.500000000E-02
    504        1      34      53     703.780518       2.500000000E-02
    505        1      46      18     711.111084       2.500000000E-02
    506        1      26      49     647.000000       2.500000000E-02
    507        1      34      62     764.447693       2.500000000E-02
    508        1      57      27     814.377502       2.500000000E-02
    509        1      23      43     660.466248       2.500000000E-02
    510        1      47      10     662.644653       2.500000000E-02
    511        1      38      41     759.794312       2.500000000E-02
    512        1      38      50     721.057861       2.500000000E-02
    513        1      39      15     688.302979       2.500000000E-02
    514        1      58      28     805.681580       2.500000000E-02
 --------------------------------------------------------------------


 ---------------------------------------------------
  RCH NO.    LAYER    ROW     COL       RECHARGE    
 ---------------------------------------------------
     1         1       1      16     1.273148150E-06
     2         1       2      15     1.273148150E-06
     3         1       2      16     1.273148150E-06
     4         1       3      15     1.273148150E-06
     5         1       3      16     1.273148150E-06
     6         1       4      15     1.273148150E-06
     7         1       4      16     1.273148150E-06
     8         1       5      15     1.273148150E-06
     9         1       5      16     1.273148150E-06
     10        1       5      30     1.273148150E-06
     11        1       5      31     1.273148150E-06
     12        1       6      14     1.273148150E-06
     13        1       6      15     1.273148150E-06
     14        1       6      16     1.273148150E-06
     15        1       6      29     1.273148150E-06
     16        1       6      30     1.273148150E-06
     17        1       6      31     1.273148150E-06
     18        1       7      14     1.273148150E-06
     19        1       7      15     1.273148150E-06
     20        1       7      16     1.273148150E-06
     21        1       7      17     1.273148150E-06
     22        1       7      30     1.273148150E-06
     23        1       7      31     1.273148150E-06
     24        1       7      32     1.273148150E-06
     25        1       8      15     1.273148150E-06
     26        1       8      16     1.273148150E-06
     27        1       8      17     1.273148150E-06
     28        1       8      18     1.273148150E-06
     29        1       8      19     1.273148150E-06
     30        1       8      30     1.273148150E-06
     31        1       8      31     1.273148150E-06
     32        1       8      32     1.273148150E-06
     33        1       9      15     1.273148150E-06
     34        1       9      16     1.273148150E-06
     35        1       9      17     1.273148150E-06
     36        1       9      18     1.273148150E-06
     37        1       9      19     1.273148150E-06
     38        1       9      26     1.273148150E-06
     39        1       9      27     1.273148150E-06
     40        1       9      30     1.273148150E-06
     41        1       9      31     1.273148150E-06
     42        1       9      32     1.273148150E-06
     43        1      10      15     1.273148150E-06
     44        1      10      16     1.273148150E-06
     45        1      10      17     1.273148150E-06
     46        1      10      18     1.273148150E-06
     47        1      10      19     1.273148150E-06
     48        1      10      26     1.273148150E-06
     49        1      10      27     1.273148150E-06
     50        1      10      31     1.273148150E-06
     51        1      10      32     1.273148150E-06
     52        1      11      16     1.273148150E-06
     53        1      11      17     1.273148150E-06
     54        1      11      18     1.273148150E-06
     55        1      11      19     1.273148150E-06
     56        1      11      25     1.273148150E-06
     57        1      11      26     1.273148150E-06
     58        1      11      31     1.273148150E-06
     59        1      11      32     1.273148150E-06
     60        1      12      16     1.273148150E-06
     61        1      12      17     1.273148150E-06
     62        1      12      18     1.273148150E-06
     63        1      12      19     1.273148150E-06
     64        1      12      25     1.273148150E-06
     65        1      12      26     1.273148150E-06
     66        1      12      27     1.273148150E-06
     67        1      12      28     1.273148150E-06
     68        1      12      29     1.273148150E-06
     69        1      12      30     1.273148150E-06
     70        1      12      31     1.273148150E-06
     71        1      12      32     1.273148150E-06
     72        1      12      33     1.273148150E-06
     73        1      13      16     1.273148150E-06
     74        1      13      17     1.273148150E-06
     75        1      13      18     1.273148150E-06
     76        1      13      19     1.273148150E-06
     77        1      13      25     1.273148150E-06
     78        1      13      26     1.273148150E-06
     79        1      13      27     1.273148150E-06
     80        1      13      28     1.273148150E-06
     81        1      13      29     1.273148150E-06
     82        1      13      30     1.273148150E-06
     83        1      13      31     1.273148150E-06
     84        1      13      32     1.273148150E-06
     85        1      13      33     1.273148150E-06
     86        1      13      34     1.273148150E-06
     87        1      14      16     1.273148150E-06
     88        1      14      17     1.273148150E-06
     89        1      14      18     1.273148150E-06
     90        1      14      25     1.273148150E-06
     91        1      14      26     1.273148150E-06
     92        1      14      27     1.273148150E-06
     93        1      14      28     1.273148150E-06
     94        1      14      29     1.273148150E-06
     95        1      14      30     1.273148150E-06
     96        1      14      31     1.273148150E-06
     97        1      14      32     1.273148150E-06
     98        1      14      33     1.273148150E-06
     99        1      14      34     1.273148150E-06
    100        1      14      35     1.273148150E-06
    101        1      15      16     1.273148150E-06
    102        1      15      17     1.273148150E-06
    103        1      15      18     1.273148150E-06
    104        1      15      24     1.273148150E-06
    105        1      15      25     1.273148150E-06
    106        1      15      26     1.273148150E-06
    107        1      15      27     1.273148150E-06
    108        1      15      28     1.273148150E-06
    109        1      15      29     1.273148150E-06
    110        1      15      30     1.273148150E-06
    111        1      15      31     1.273148150E-06
    112        1      15      32     1.273148150E-06
    113        1      15      33     1.273148150E-06
    114        1      15      34     1.273148150E-06
    115        1      15      35     1.273148150E-06
    116        1      16      16     1.273148150E-06
    117        1      16      17     1.273148150E-06
    118        1      16      18     1.273148150E-06
    119        1      16      24     1.273148150E-06
    120        1      16      25     1.273148150E-06
    121        1      16      26     1.273148150E-06
    122        1      16      27     1.273148150E-06
    123        1      16      29     1.273148150E-06
    124        1      16      30     1.273148150E-06
    125        1      16      31     1.273148150E-06
    126        1      16      32     1.273148150E-06
    127        1      16      33     1.273148150E-06
    128        1      16      34     1.273148150E-06
    129        1      16      35     1.273148150E-06
    130        1      17      15     1.273148150E-06
    131        1      17      16     1.273148150E-06
    132        1      17      17     1.273148150E-06
    133        1      17      18     1.273148150E-06
    134        1      17      24     1.273148150E-06
    135        1      17      25     1.273148150E-06
    136        1      17      26     1.273148150E-06
    137        1      17      27     1.273148150E-06
    138        1      17      28     1.273148150E-06
    139        1      17      29     1.273148150E-06
    140        1      17      30     1.273148150E-06
    141        1      17      31     1.273148150E-06
    142        1      17      32     1.273148150E-06
    143        1      17      33     1.273148150E-06
    144        1      17      34     1.273148150E-06
    145        1      17      35     1.273148150E-06
[...]
        829.1       844.8       861.9       880.5       900.3       921.0       942.3       963.7       984.9       1005.    
        1025.       1043.       1059.       1073.       1084.       1093.       1099.       1103.       1104.       1103.    
        1100.       1095.       1088.       1080.       1070.       1059.       1048.       1036.       1024.       1011.    
        999.1       987.3       976.0       965.3       955.0       945.4       936.4       928.1       920.7       914.2    
        908.6       904.1       900.5       897.7       895.6       894.0       892.7       891.4       890.0       888.3    
        886.2       883.6       880.5       876.9       873.0       868.9       864.6       860.5       857.3      1.0000E+30
       1.0000E+30  1.0000E+30  1.0000E+30  1.0000E+30  1.0000E+30
  44   1.0000E+30  1.0000E+30  1.0000E+30  1.0000E+30  1.0000E+30  1.0000E+30   788.1       797.7       808.9       823.3    
        838.3       854.7       872.8       892.6       914.0       936.3       959.3       982.4       1005.       1027.    
        1048.       1068.       1085.       1100.       1112.       1122.       1129.       1133.       1134.       1132.    
        1129.       1123.       1115.       1106.       1095.       1083.       1071.       1058.       1044.       1031.    
        1018.       1006.       993.6       982.2       971.3       961.1       951.6       942.9       935.0       928.1    
        922.2       917.4       913.4       910.4       908.1       906.3       904.9       903.5       902.0       900.3    
        898.1       895.5       892.5       889.0       885.2       881.2       877.0       872.7       868.7      1.0000E+30
       1.0000E+30  1.0000E+30  1.0000E+30  1.0000E+30  1.0000E+30
  45   1.0000E+30  1.0000E+30  1.0000E+30  1.0000E+30  1.0000E+30  1.0000E+30  1.0000E+30   805.4       815.2       833.3    
        848.4       865.1       884.1       905.4       928.6       952.9       977.6       1002.       1027.       1050.    
        1073.       1093.       1112.       1128.       1141.       1152.       1159.       1163.       1164.       1162.    
        1158.       1151.       1143.       1132.       1121.       1108.       1094.       1080.       1066.       1052.    
        1038.       1024.       1012.       999.7       988.2       977.5       967.5       958.3       950.0       942.6    
        936.4       931.1       926.9       923.5       920.9       918.9       917.2       915.7       914.1       912.2    
        910.0       907.4       904.4       901.1       897.5       893.7       889.8       885.0       876.6      1.0000E+30
       1.0000E+30  1.0000E+30  1.0000E+30  1.0000E+30  1.0000E+30
  46   1.0000E+30  1.0000E+30  1.0000E+30  1.0000E+30  1.0000E+30  1.0000E+30  1.0000E+30  1.0000E+30  1.0000E+30   848.7    
        859.1       875.8       895.5       918.5       944.3       970.9       997.5       1024.       1049.       1074.    
        1098.       1119.       1139.       1156.       1170.       1181.       1189.       1193.       1194.       1192.    
        1187.       1180.       1171.       1159.       1146.       1132.       1118.       1103.       1087.       1072.    
        1058.       1044.       1030.       1018.       1006.       994.5       984.0       974.3       965.5       957.7    
        951.0       945.3       940.7       937.0       934.1       931.7       929.7       927.9       926.1       924.1    
        921.8       919.2       916.2       913.0       909.7       906.4       903.5       901.2      1.0000E+30  1.0000E+30
       1.0000E+30  1.0000E+30  1.0000E+30  1.0000E+30  1.0000E+30
  47   1.0000E+30  1.0000E+30  1.0000E+30  1.0000E+30  1.0000E+30  1.0000E+30  1.0000E+30  1.0000E+30  1.0000E+30   856.1    
        866.2       886.1       906.2       931.3       961.6       991.2       1019.       1047.       1073.       1099.    
        1123.       1146.       1167.       1185.       1199.       1211.       1219.       1223.       1224.       1222.    
        1216.       1208.       1198.       1186.       1172.       1157.       1142.       1126.       1110.       1094.    
        1078.       1064.       1050.       1037.       1024.       1012.       1001.       990.9       981.6       973.4    
        966.1       960.0       954.9       950.7       947.4       944.6       942.3       940.1       938.0       935.7    
        933.3       930.5       927.5       924.4       921.4       918.6       916.4       915.2      1.0000E+30  1.0000E+30
       1.0000E+30  1.0000E+30  1.0000E+30  1.0000E+30  1.0000E+30
  48   1.0000E+30  1.0000E+30  1.0000E+30  1.0000E+30  1.0000E+30  1.0000E+30  1.0000E+30  1.0000E+30  1.0000E+30  1.0000E+30
       1.0000E+30   898.9       914.7       941.8       982.0       1015.       1044.       1071.       1098.       1124.    
        1149.       1173.       1194.       1212.       1228.       1240.       1248.       1252.       1253.       1250.    
        1245.       1236.       1225.       1212.       1197.       1182.       1165.       1149.       1132.       1115.    
        1099.       1084.       1070.       1056.       1043.       1030.       1019.       1008.       998.3       989.5    
        981.7       975.0       969.4       964.7       960.8       957.5       954.7       952.1       949.6       947.0    
        944.2       941.3       938.2       935.2       932.3       929.9       928.4       927.9      1.0000E+30  1.0000E+30
       1.0000E+30  1.0000E+30  1.0000E+30  1.0000E+30  1.0000E+30
  49   1.0000E+30  1.0000E+30  1.0000E+30  1.0000E+30  1.0000E+30  1.0000E+30  1.0000E+30  1.0000E+30  1.0000E+30  1.0000E+30
       1.0000E+30  1.0000E+30  1.0000E+30  1.0000E+30   1012.       1045.       1071.       1097.       1124.       1150.    
        1175.       1199.       1221.       1240.       1255.       1267.       1276.       1280.       1281.       1278.    
        1272.       1263.       1251.       1237.       1222.       1206.       1189.       1172.       1154.       1137.    
        1121.       1105.       1090.       1076.       1062.       1049.       1037.       1026.       1015.       1006.    
        997.6       990.3       984.0       978.7       974.1       970.2       966.8       963.7       960.7       957.7    
        954.6       951.4       948.2       945.1       942.3       940.1       939.1       940.0       945.0      1.0000E+30
       1.0000E+30  1.0000E+30  1.0000E+30  1.0000E+30  1.0000E+30
  50   1.0000E+30  1.0000E+30  1.0000E+30  1.0000E+30  1.0000E+30  1.0000E+30  1.0000E+30  1.0000E+30  1.0000E+30  1.0000E+30
       1.0000E+30  1.0000E+30  1.0000E+30  1.0000E+30  1.0000E+30   1082.       1100.       1124.       1149.       1175.    
        1200.       1225.       1247.       1266.       1282.       1294.       1302.       1307.       1307.       1304.    
        1297.       1288.       1276.       1262.       1246.       1230.       1212.       1194.       1176.       1159.    
        1142.       1126.       1110.       1096.       1082.       1068.       1056.       1044.       1033.       1023.    
        1014.       1006.       998.6       992.5       987.2       982.6       978.5       974.7       971.1       967.6    
        964.1       960.6       957.2       953.9       951.0       948.8       947.6       947.9       950.0       952.7    
       1.0000E+30  1.0000E+30  1.0000E+30  1.0000E+30  1.0000E+30
  51   1.0000E+30  1.0000E+30  1.0000E+30  1.0000E+30  1.0000E+30  1.0000E+30  1.0000E+30  1.0000E+30  1.0000E+30  1.0000E+30
       1.0000E+30  1.0000E+30  1.0000E+30  1.0000E+30  1.0000E+30   1103.       1125.       1149.       1174.       1199.    
        1225.       1249.       1272.       1291.       1307.       1319.       1327.       1331.       1332.       1328.    
        1321.       1312.       1300.       1285.       1269.       1252.       1235.       1216.       1198.       1181.    
        1163.       1147.       1131.       1116.       1101.       1087.       1074.       1062.       1050.       1039.    
        1029.       1021.       1013.       1006.       999.8       994.4       989.5       985.0       980.7       976.7    
        972.7       968.8       965.1       961.6       958.5       956.0       954.4       953.8       954.3       955.4    
        956.8      1.0000E+30  1.0000E+30  1.0000E+30  1.0000E+30
  52   1.0000E+30  1.0000E+30  1.0000E+30  1.0000E+30  1.0000E+30  1.0000E+30  1.0000E+30  1.0000E+30  1.0000E+30  1.0000E+30
       1.0000E+30  1.0000E+30  1.0000E+30  1.0000E+30  1.0000E+30  1.0000E+30   1149.       1173.       1197.       1221.    
        1247.       1272.       1295.       1314.       1330.       1342.       1350.       1354.       1354.       1351.    
        1344.       1334.       1322.       1307.       1291.       1274.       1256.       1238.       1220.       1202.    
        1184.       1167.       1151.       1135.       1120.       1106.       1092.       1079.       1067.       1055.    
        1045.       1035.       1027.       1019.       1012.       1005.       999.6       994.3       989.4       984.7    
        980.2       976.0       971.9       968.1       964.7       961.9       959.7       958.4       957.8       957.8    
        958.1       958.6      1.0000E+30  1.0000E+30  1.0000E+30
  53   1.0000E+30  1.0000E+30  1.0000E+30  1.0000E+30  1.0000E+30  1.0000E+30  1.0000E+30  1.0000E+30  1.0000E+30  1.0000E+30
       1.0000E+30  1.0000E+30  1.0000E+30  1.0000E+30  1.0000E+30  1.0000E+30  1.0000E+30   1196.       1218.       1240.    
        1266.       1294.       1317.       1336.       1351.       1363.       1370.       1374.       1374.       1371.    
        1364.       1354.       1342.       1327.       1311.       1294.       1276.       1258.       1240.       1222.    
        1204.       1187.       1171.       1154.       1139.       1124.       1110.       1096.       1083.       1071.    
        1059.       1049.       1039.       1031.       1023.       1015.       1009.       1003.       996.9       991.6    
        986.7       982.0       977.5       973.4       969.7       966.5       964.0       962.0       960.6       959.8    
        959.3       959.1       959.0      1.0000E+30  1.0000E+30
  54   1.0000E+30  1.0000E+30  1.0000E+30  1.0000E+30  1.0000E+30  1.0000E+30  1.0000E+30  1.0000E+30  1.0000E+30  1.0000E+30
       1.0000E+30  1.0000E+30  1.0000E+30  1.0000E+30  1.0000E+30  1.0000E+30  1.0000E+30  1.0000E+30   1237.       1253.    
        1280.       1317.       1339.       1357.       1371.       1381.       1389.       1392.       1392.       1389.    
        1382.       1372.       1360.       1346.       1330.       1313.       1295.       1277.       1259.       1241.    
        1223.       1206.       1189.       1172.       1156.       1141.       1126.       1112.       1098.       1085.    
        1073.       1061.       1051.       1041.       1032.       1024.       1017.       1010.       1003.       997.4    
        992.0       986.9       982.0       977.5       973.5       970.1       967.2       964.8       962.7       961.2    
        960.2       959.5       959.0       958.6       958.3    
  55   1.0000E+30  1.0000E+30  1.0000E+30  1.0000E+30  1.0000E+30  1.0000E+30  1.0000E+30  1.0000E+30  1.0000E+30  1.0000E+30
       1.0000E+30  1.0000E+30  1.0000E+30  1.0000E+30  1.0000E+30  1.0000E+30  1.0000E+30  1.0000E+30  1.0000E+30  1.0000E+30
       1.0000E+30   1349.       1360.       1375.       1387.       1397.       1404.       1408.       1408.       1405.    
        1398.       1388.       1376.       1362.       1347.       1330.       1313.       1294.       1276.       1258.    
        1240.       1223.       1205.       1189.       1172.       1156.       1141.       1126.       1112.       1098.    
        1085.       1072.       1061.       1051.       1041.       1032.       1023.       1015.       1008.       1002.    
        996.2       990.8       985.3       980.4       976.2       972.6       969.6       967.0       964.0       962.0    
        960.6       959.7       959.1       958.7      1.0000E+30
  56   1.0000E+30  1.0000E+30  1.0000E+30  1.0000E+30  1.0000E+30  1.0000E+30  1.0000E+30  1.0000E+30  1.0000E+30  1.0000E+30
       1.0000E+30  1.0000E+30  1.0000E+30  1.0000E+30  1.0000E+30  1.0000E+30  1.0000E+30  1.0000E+30  1.0000E+30  1.0000E+30
       1.0000E+30   1364.       1373.       1389.       1400.       1409.       1417.       1421.       1421.       1418.    
        1412.       1402.       1391.       1377.       1362.       1345.       1328.       1310.       1292.       1273.    
        1255.       1238.       1220.       1203.       1186.       1169.       1153.       1138.       1123.       1109.    
        1095.       1081.       1069.       1058.       1048.       1038.       1028.       1019.       1012.       1005.    
        999.4       994.1       987.3       981.9       977.5       973.9       971.1       969.3      1.0000E+30  1.0000E+30
       1.0000E+30  1.0000E+30  1.0000E+30  1.0000E+30  1.0000E+30
  57   1.0000E+30  1.0000E+30  1.0000E+30  1.0000E+30  1.0000E+30  1.0000E+30  1.0000E+30  1.0000E+30  1.0000E+30  1.0000E+30
       1.0000E+30  1.0000E+30  1.0000E+30  1.0000E+30  1.0000E+30  1.0000E+30  1.0000E+30  1.0000E+30  1.0000E+30  1.0000E+30
       1.0000E+30  1.0000E+30  1.0000E+30   1402.       1408.       1417.       1426.       1430.       1431.       1429.    
        1423.       1414.       1403.       1389.       1375.       1358.       1341.       1323.       1305.       1286.    
        1268.       1251.       1233.       1215.       1198.       1180.       1164.       1148.       1133.       1118.    
        1102.       1088.       1075.       1064.       1053.       1044.       1032.       1022.       1014.       1007.    
        1002.       998.1      1.0000E+30  1.0000E+30  1.0000E+30  1.0000E+30  1.0000E+30  1.0000E+30  1.0000E+30  1.0000E+30
       1.0000E+30  1.0000E+30  1.0000E+30  1.0000E+30  1.0000E+30
  58   1.0000E+30  1.0000E+30  1.0000E+30  1.0000E+30  1.0000E+30  1.0000E+30  1.0000E+30  1.0000E+30  1.0000E+30  1.0000E+30
       1.0000E+30  1.0000E+30  1.0000E+30  1.0000E+30  1.0000E+30  1.0000E+30  1.0000E+30  1.0000E+30  1.0000E+30  1.0000E+30
       1.0000E+30  1.0000E+30  1.0000E+30  1.0000E+30  1.0000E+30  1.0000E+30   1435.       1437.       1439.       1437.    
        1432.       1423.       1413.       1400.       1385.       1369.       1352.       1334.       1315.       1297.    
        1279.       1261.       1244.       1226.       1206.       1188.       1171.       1155.       1141.       1126.    
        1107.       1092.       1078.       1067.       1058.       1051.      1.0000E+30  1.0000E+30  1.0000E+30  1.0000E+30
       1.0000E+30  1.0000E+30  1.0000E+30  1.0000E+30  1.0000E+30  1.0000E+30  1.0000E+30  1.0000E+30  1.0000E+30  1.0000E+30
       1.0000E+30  1.0000E+30  1.0000E+30  1.0000E+30  1.0000E+30
  59   1.0000E+30  1.0000E+30  1.0000E+30  1.0000E+30  1.0000E+30  1.0000E+30  1.0000E+30  1.0000E+30  1.0000E+30  1.0000E+30
       1.0000E+30  1.0000E+30  1.0000E+30  1.0000E+30  1.0000E+30  1.0000E+30  1.0000E+30  1.0000E+30  1.0000E+30  1.0000E+30
       1.0000E+30  1.0000E+30  1.0000E+30  1.0000E+30  1.0000E+30  1.0000E+30  1.0000E+30  1.0000E+30   1443.       1442.    
        1438.       1430.       1420.       1408.       1394.       1378.       1361.       1342.       1323.       1304.    
        1286.       1269.       1252.       1235.       1212.       1193.       1175.       1160.       1147.       1137.    
       1.0000E+30  1.0000E+30  1.0000E+30  1.0000E+30  1.0000E+30  1.0000E+30  1.0000E+30  1.0000E+30  1.0000E+30  1.0000E+30
       1.0000E+30  1.0000E+30  1.0000E+30  1.0000E+30  1.0000E+30  1.0000E+30  1.0000E+30  1.0000E+30  1.0000E+30  1.0000E+30
       1.0000E+30  1.0000E+30  1.0000E+30  1.0000E+30  1.0000E+30
  60   1.0000E+30  1.0000E+30  1.0000E+30  1.0000E+30  1.0000E+30  1.0000E+30  1.0000E+30  1.0000E+30  1.0000E+30  1.0000E+30
       1.0000E+30  1.0000E+30  1.0000E+30  1.0000E+30  1.0000E+30  1.0000E+30  1.0000E+30  1.0000E+30  1.0000E+30  1.0000E+30
       1.0000E+30  1.0000E+30  1.0000E+30  1.0000E+30  1.0000E+30  1.0000E+30  1.0000E+30  1.0000E+30  1.0000E+30   1446.    
        1442.       1435.       1425.       1413.       1400.       1386.       1370.       1347.       1327.       1308.    
        1290.       1273.       1259.       1248.      1.0000E+30  1.0000E+30  1.0000E+30  1.0000E+30  1.0000E+30  1.0000E+30
       1.0000E+30  1.0000E+30  1.0000E+30  1.0000E+30  1.0000E+30  1.0000E+30  1.0000E+30  1.0000E+30  1.0000E+30  1.0000E+30
       1.0000E+30  1.0000E+30  1.0000E+30  1.0000E+30  1.0000E+30  1.0000E+30  1.0000E+30  1.0000E+30  1.0000E+30  1.0000E+30
       1.0000E+30  1.0000E+30  1.0000E+30  1.0000E+30  1.0000E+30
  61   1.0000E+30  1.0000E+30  1.0000E+30  1.0000E+30  1.0000E+30  1.0000E+30  1.0000E+30  1.0000E+30  1.0000E+30  1.0000E+30
       1.0000E+30  1.0000E+30  1.0000E+30  1.0000E+30  1.0000E+30  1.0000E+30  1.0000E+30  1.0000E+30  1.0000E+30  1.0000E+30
       1.0000E+30  1.0000E+30  1.0000E+30  1.0000E+30  1.0000E+30  1.0000E+30  1.0000E+30  1.0000E+30  1.0000E+30   1448.    
        1444.       1437.       1428.       1416.       1404.       1392.       1383.      1.0000E+30  1.0000E+30  1.0000E+30
       1.0000E+30  1.0000E+30  1.0000E+30  1.0000E+30  1.0000E+30  1.0000E+30  1.0000E+30  1.0000E+30  1.0000E+30  1.0000E+30
       1.0000E+30  1.0000E+30  1.0000E+30  1.0000E+30  1.0000E+30  1.0000E+30  1.0000E+30  1.0000E+30  1.0000E+30  1.0000E+30
       1.0000E+30  1.0000E+30  1.0000E+30  1.0000E+30  1.0000E+30  1.0000E+30  1.0000E+30  1.0000E+30  1.0000E+30  1.0000E+30
       1.0000E+30  1.0000E+30  1.0000E+30  1.0000E+30  1.0000E+30

 HEAD WILL BE SAVED ON UNIT 1015 AT END OF TIME STEP    1, STRESS PERIOD    1


  VOLUME BUDGET FOR ENTIRE MODEL AT END OF TIME STEP    1, STRESS PERIOD   1
  ---------------------------------------------------------------------------------------------------

     CUMULATIVE VOLUME      L**3       RATES FOR THIS TIME STEP      L**3/T          PACKAGE NAME    
     ------------------                 ------------------------                     ----------------

           IN:                                      IN:
           ---                                      ---
                 DRN =           0.0000                   DRN =           0.0000     DRN             
                 RCH =           6.0411                   RCH =           6.0411     RCH             
                 CHD =       1.5625E-03                   CHD =       1.5625E-03     CHD             

            TOTAL IN =           6.0427              TOTAL IN =           6.0427

          OUT:                                     OUT:
          ----                                     ----
                 DRN =           5.1685                   DRN =           5.1685     DRN             
                 RCH =           0.0000                   RCH =           0.0000     RCH             
                 CHD =           0.8742                   CHD =           0.8742     CHD             

           TOTAL OUT =           6.0427             TOTAL OUT =           6.0427

            IN - OUT =      -3.6532E-06              IN - OUT =      -3.6532E-06

 PERCENT DISCREPANCY =          -0.00     PERCENT DISCREPANCY =          -0.00




         TIME SUMMARY AT END OF TIME STEP    1 IN STRESS PERIOD    1
                    SECONDS     MINUTES      HOURS       DAYS        YEARS
                    -----------------------------------------------------------
   TIME STEP LENGTH  1.0000     1.66667E-02 2.77778E-04 1.15741E-05 3.16881E-08
 STRESS PERIOD TIME  1.0000     1.66667E-02 2.77778E-04 1.15741E-05 3.16881E-08
         TOTAL TIME  1.0000     1.66667E-02 2.77778E-04 1.15741E-05 3.16881E-08


end timestep

